data_Molecule from CHK

_cell_length_a		97.004206
_cell_length_b		101.639352
_cell_length_c		139.943892
_cell_angle_alpha	37.923821
_cell_angle_beta	152.818356
_cell_angle_gamma	122.058761
_symmetry_space_group_name_H-M	'P 1'
_symmetry_Int_Tables_number		1

loop_
	_symmetry_equiv_pos_as_xyz
	x,y,z

loop_
	_atom_site_label
	_atom_site_type_symbol
	_atom_site_fract_x
	_atom_site_fract_y
	_atom_site_fract_z
	C0	C	0.028315	0.134205	0.010208
	C1	C	0.027937	0.120145	0.010376
	C2	C	0.014863	0.104965	0.012515
	C3	C	0.003056	0.103301	0.015236
	C4	C	0.004160	0.117328	0.015461
	C5	C	0.016439	0.133054	0.012635
	H6	H	-0.007184	0.091630	0.016711
	H7	H	0.016408	0.144341	0.011987
	H8	H	0.037342	0.121165	0.008617
	C9	C	0.040662	0.187599	-0.014179
	C10	C	0.031540	0.212980	-0.033105
	C11	C	0.061599	0.214111	-0.016556
	C12	C	0.098050	0.191654	0.016206
	C13	C	0.106932	0.166372	0.034726
	C14	C	0.077098	0.165048	0.018628
	H15	H	0.003371	0.230475	-0.058470
	H16	H	0.135134	0.148925	0.060093
	C17	C	0.123386	0.200010	0.026724
	C18	C	0.062313	0.237457	-0.027995
	N19	N	0.100458	0.227335	-0.000120
	O20	O	0.036476	0.260205	-0.054682
	O21	O	0.156443	0.186795	0.052452
	C22	C	0.016097	0.178945	-0.022937
	C23	C	0.077056	0.141102	0.031981
	N24	N	0.040007	0.150806	0.006354
	O25	O	0.102545	0.118128	0.058712
	O26	O	-0.017054	0.192456	-0.048930
	C27	C	-0.002717	0.084653	-0.009649
	C28	C	-0.015259	0.087417	-0.028295
	C29	C	-0.012687	0.065596	-0.017750
	C30	C	0.002027	0.042433	0.010007
	C31	C	0.013930	0.039884	0.028196
	C32	C	0.011098	0.061785	0.017481
	H33	H	-0.025924	0.105257	-0.049255
	H34	H	0.024400	0.022095	0.049011
	C35	C	0.003052	0.022382	0.016024
	C36	C	-0.023289	0.061656	-0.031650
	N37	N	-0.012506	0.035174	-0.009820
	O38	O	-0.037909	0.077269	-0.056212
	O39	O	0.015073	-0.000356	0.038433
	C40	C	-0.001836	0.104178	-0.014400
	C41	C	0.021082	0.066023	0.030885
	N42	N	0.011989	0.091983	0.010198
	O43	O	0.033934	0.051058	0.054186
	O44	O	-0.011131	0.126111	-0.034941
	C45	C	0.482359	0.119610	0.026447
	C46	C	0.486083	0.120669	0.037956
	C47	C	0.455331	0.126847	0.020837
	C48	C	0.423405	0.131203	-0.005478
	C49	C	0.419570	0.130284	-0.017136
	C50	C	0.450011	0.124570	-0.000492
	H51	H	0.510930	0.117170	0.058508
	H52	H	0.394560	0.133952	-0.037837
	C53	C	0.396299	0.137021	-0.017714
	C54	C	0.449306	0.130364	0.025682
	N55	N	0.413016	0.136966	0.001244
	O56	O	0.470448	0.128382	0.045843
	O57	O	0.366336	0.140711	-0.039020
	C58	C	0.509268	0.114129	0.038363
	C59	C	0.454722	0.123066	-0.007346
	N60	N	0.490865	0.116679	0.016894
	O61	O	0.432940	0.126303	-0.028698
	O62	O	0.540438	0.108567	0.061442
	C63	C	0.118851	0.266470	0.004192
	C64	C	0.105302	0.252574	0.000729
	C65	C	0.114916	0.241360	0.003890
	C66	C	0.138213	0.243450	0.011041
	C67	C	0.151814	0.257110	0.014981
	C68	C	0.142110	0.268894	0.011314
	H69	H	0.145492	0.234756	0.013449
	H70	H	0.152558	0.279585	0.014146
	H71	H	0.087166	0.251095	-0.004991
	C72	C	-0.021776	-0.008865	-0.005766
	C73	C	-0.023179	0.004799	-0.006387
	C74	C	-0.012810	0.021815	-0.010636
	C75	C	-0.001785	0.025540	-0.014791
	C76	C	-0.001231	0.011938	-0.014630
	C77	C	-0.010669	-0.005622	-0.009632
	H78	H	0.006321	0.038624	-0.017974
	H79	H	-0.009610	-0.016443	-0.008940
	H80	H	-0.032194	0.002224	-0.003692
	C81	C	0.384909	0.158984	-0.003445
	C82	C	0.400404	0.155628	-0.001016
	C83	C	0.396242	0.141391	-0.002355
	C84	C	0.376874	0.130701	-0.006106
	C85	C	0.360678	0.135213	-0.009677
	C86	C	0.364437	0.149317	-0.008438
	H87	H	0.374185	0.119239	-0.006412
	H88	H	0.352502	0.152112	-0.010383
	H89	H	0.415584	0.163696	0.002207
	C90	C	0.122559	0.291161	0.015674
	C91	C	0.140672	0.291696	0.034540
	C92	C	0.124384	0.317261	0.013528
	C93	C	0.091526	0.340557	-0.023933
	C94	C	0.072950	0.339982	-0.042937
	C95	C	0.089993	0.314518	-0.021708
	H96	H	0.166271	0.273645	0.063623
	H97	H	0.047830	0.358101	-0.071893
	C98	C	0.083371	0.364444	-0.037405
	C99	C	0.138699	0.325486	0.025410
	N100	N	0.113709	0.354013	-0.006213
	O101	O	0.166185	0.311336	0.055495
	O102	O	0.057207	0.387957	-0.068072
	C103	C	0.134426	0.267818	0.030073
	C104	C	0.080286	0.307037	-0.032417
	N105	N	0.109071	0.279049	0.000161
	O106	O	0.054278	0.321461	-0.062131
	O107	O	0.160346	0.244261	0.060628
	C108	C	0.188804	0.288534	0.008245
	C109	C	0.185769	0.310133	-0.010015
	C110	C	0.214070	0.312209	0.008967
	C111	C	0.243691	0.293754	0.043969
	C112	C	0.247371	0.271716	0.062645
	C113	C	0.218807	0.269861	0.043460
	H114	H	0.162731	0.324620	-0.037251
	H115	H	0.270065	0.257503	0.089633
	C116	C	0.267300	0.303047	0.055078
	C117	C	0.217896	0.333847	-0.003381
	N118	N	0.249774	0.327327	0.025245
	O119	O	0.198303	0.353465	-0.031691
	O120	O	0.295283	0.292724	0.083164
	C121	C	0.161529	0.281893	-0.005199
	C122	C	0.212317	0.250300	0.054058
	N123	N	0.176187	0.259948	0.022751
	O124	O	0.232766	0.230571	0.082860
	O125	O	0.132651	0.292672	-0.033733
	C126	C	0.019771	0.010819	-0.026553
	C127	C	0.016919	0.008306	-0.036624
	C128	C	0.048336	0.001123	-0.018426
	C129	C	0.080305	-0.003248	0.007945
	C130	C	0.083017	-0.000520	0.017802
	C131	C	0.051587	0.006684	-0.000409
	H132	H	-0.007648	0.011373	-0.056749
	H133	H	0.107868	-0.004052	0.038379
	C134	C	0.108479	-0.010884	0.021965
	C135	C	0.054814	-0.003260	-0.022436
	N136	N	0.090862	-0.009515	0.001664
	O137	O	0.034259	-0.002058	-0.041788
	O138	O	0.140055	-0.017144	0.045745
	C139	C	-0.007533	0.016856	-0.039098
	C140	C	0.045440	0.010297	0.004288
	N141	N	0.010252	0.015167	-0.018509
	O142	O	0.065347	0.009790	0.022871
	O143	O	-0.038449	0.022021	-0.061831
	C144	C	0.431585	0.458255	-0.014514
	C145	C	0.402001	0.456403	-0.030932
	C146	C	0.412267	0.430759	-0.011396
	C147	C	0.449472	0.408489	0.022185
	C148	C	0.479056	0.410398	0.038542
	C149	C	0.468854	0.436058	0.019048
	H150	H	0.373133	0.473644	-0.056960
	H151	H	0.507932	0.393123	0.064624
	C152	C	0.450135	0.384296	0.035433
	C153	C	0.387956	0.421669	-0.020684
	N154	N	0.412482	0.393651	0.008655
	O155	O	0.354460	0.434873	-0.047163
	O156	O	0.476542	0.361463	0.062798
	C157	C	0.430444	0.482533	-0.027958
	C158	C	0.492889	0.445490	0.028107
	N159	N	0.467959	0.473463	-0.001290
	O160	O	0.526402	0.432655	0.054455
	O161	O	0.403776	0.505265	-0.055390
	C162	C	0.326510	0.108141	0.000063
	C163	C	0.329209	0.094503	0.017740
	C164	C	0.295712	0.107095	-0.004905
	C165	C	0.261594	0.131209	-0.042676
	C166	C	0.258683	0.144537	-0.060419
	C167	C	0.292445	0.132362	-0.037686
	H168	H	0.355749	0.075958	0.047060
	H169	H	0.232428	0.163501	-0.089671
	C170	C	0.232258	0.139886	-0.058176
	C171	C	0.289454	0.099606	0.005087
	N172	N	0.251345	0.120659	-0.027976
	O173	O	0.311718	0.080129	0.034802
	O174	O	0.199261	0.159296	-0.089564
	C175	C	0.357431	0.102286	0.015907
	C176	C	0.300488	0.142983	-0.047221
	N177	N	0.340325	0.125070	-0.013729
	O178	O	0.278547	0.163105	-0.076863
	O179	O	0.390471	0.082900	0.047220
	C180	C	0.386298	0.200692	-0.007688
	C181	C	0.376257	0.223404	-0.021846
	C182	C	0.387186	0.218951	-0.002983
	C183	C	0.408298	0.193284	0.028839
	C184	C	0.418017	0.170698	0.042808
	C185	C	0.405808	0.175424	0.023159
	H186	H	0.360182	0.243253	-0.046342
	H187	H	0.432664	0.151086	0.066369
	C188	C	0.414233	0.195504	0.041553
	C189	C	0.377234	0.238756	-0.012637
	N190	N	0.391997	0.223340	0.013828
	O191	O	0.359537	0.262854	-0.037846
	O192	O	0.432524	0.177823	0.068807
	C193	C	0.377548	0.197865	-0.021581
	C194	C	0.408571	0.156107	0.029082
	N195	N	0.391538	0.170631	0.001721
	O196	O	0.420979	0.133006	0.051372
	O197	O	0.361635	0.214747	-0.047232
	C198	C	0.155462	0.390295	-0.000320
	C199	C	0.145136	0.401622	-0.004081
	C200	C	0.123624	0.397190	-0.009003
	C201	C	0.112911	0.381452	-0.009692
	C202	C	0.124241	0.370044	-0.005259
	C203	C	0.145321	0.374367	-0.000721
	H204	H	0.096466	0.378152	-0.013388
	H205	H	0.153442	0.365681	0.002209
	H206	H	0.153127	0.413926	-0.003781
	C207	C	0.263270	0.374895	0.017358
	C208	C	0.274579	0.382430	0.012210
	C209	C	0.277808	0.371024	0.011821
	C210	C	0.270394	0.352402	0.016787
	C211	C	0.258952	0.345508	0.021576
	C212	C	0.255083	0.356656	0.021751
	H213	H	0.273060	0.343629	0.016568
	H214	H	0.245901	0.351227	0.025234
	H215	H	0.280421	0.396753	0.008452
	C216	C	0.114776	-0.020837	-0.002983
	C217	C	0.102064	-0.022163	-0.001119
	C218	C	0.104144	-0.008853	0.000227
	C219	C	0.118026	0.005931	-0.000874
	C220	C	0.130671	0.006837	-0.002588
	C221	C	0.129417	-0.006549	-0.003460
	H222	H	0.118762	0.016724	-0.000706
	H223	H	0.139557	-0.005801	-0.004537
	H224	H	0.090514	-0.033058	-0.001110
	C225	C	0.391657	0.345359	0.018300
	C226	C	0.404055	0.361070	0.015635
	C227	C	0.401047	0.376720	0.012412
	C228	C	0.386454	0.376625	0.012283
	C229	C	0.374417	0.360706	0.015119
	C230	C	0.376559	0.345124	0.017870
	H231	H	0.384511	0.388651	0.010040
	H232	H	0.367003	0.333008	0.019917
	H233	H	0.415552	0.361277	0.015844
	C234	C	0.224031	0.148403	-0.036119
	C235	C	0.212162	0.134153	-0.031309
	C236	C	0.213115	0.115414	-0.025715
	C237	C	0.225336	0.110955	-0.025138
	C238	C	0.237270	0.125343	-0.029745
	C239	C	0.236870	0.144043	-0.035144
	H240	H	0.226553	0.096177	-0.020252
	H241	H	0.246202	0.155017	-0.038666
	H242	H	0.202995	0.137383	-0.031463
	C243	C	0.331578	0.234922	-0.009502
	C244	C	0.341685	0.245852	-0.002759
	C245	C	0.367484	0.250768	0.007761
	C246	C	0.384139	0.244138	0.012760
	C247	C	0.374020	0.232708	0.006527
	C248	C	0.347486	0.228307	-0.005020
	H249	H	0.404312	0.247695	0.021250
	H250	H	0.339840	0.219538	-0.009870
	H251	H	0.331196	0.249320	-0.004002
	C252	C	0.222315	0.383977	0.026990
	C253	C	0.255131	0.370161	0.049605
	C254	C	0.250915	0.380974	0.031775
	C255	C	0.216832	0.404647	-0.005952
	C256	C	0.184259	0.418678	-0.028461
	C257	C	0.187939	0.407308	-0.010802
	H258	H	0.281682	0.351859	0.078909
	H259	H	0.157581	0.436534	-0.057682
	C260	C	0.221788	0.409299	-0.015768
	C261	C	0.278184	0.369089	0.047210
	N262	N	0.257982	0.385986	0.017119
	O263	O	0.310303	0.348508	0.078677
	O264	O	0.200027	0.428170	-0.045126
	C265	C	0.215544	0.376497	0.036603
	C266	C	0.157847	0.415322	-0.026718
	N267	N	0.175976	0.395279	0.003127
	O268	O	0.124587	0.434338	-0.058276
	O269	O	0.238022	0.358175	0.066193
	C270	C	0.099614	0.460550	-0.025256
	C271	C	0.090428	0.463878	-0.042453
	C272	C	0.098701	0.441158	-0.028895
	C273	C	0.114923	0.416718	-0.000164
	C274	C	0.123808	0.413562	0.016815
	C275	C	0.115964	0.436241	0.003564
	H276	H	0.078641	0.482639	-0.064145
	H277	H	0.136593	0.394627	0.039213
	C278	C	0.121737	0.396468	0.008360
	C279	C	0.094722	0.437508	-0.039587
	N280	N	0.111737	0.409943	-0.014466
	O281	O	0.080729	0.454069	-0.064026
	O282	O	0.132782	0.373621	0.029404
	C283	C	0.095495	0.480589	-0.032521
	C284	C	0.123345	0.439939	0.016119
	N285	N	0.111184	0.466843	-0.006245
	O286	O	0.136525	0.423912	0.039910
	O287	O	0.081766	0.503915	-0.055843
	C288	C	0.318218	0.372711	-0.004649
	C289	C	0.286521	0.382705	-0.024211
	C290	C	0.293491	0.379633	-0.008363
	C291	C	0.329721	0.367163	0.024939
	C292	C	0.361409	0.357211	0.044488
	C293	C	0.354353	0.360484	0.028492
	H294	H	0.258521	0.392008	-0.049770
	H295	H	0.389546	0.347513	0.070342
	C296	C	0.327353	0.366082	0.034732
	C297	C	0.266591	0.387241	-0.021211
	N298	N	0.289042	0.377615	0.006559
	O299	O	0.232722	0.398978	-0.049130
	O300	O	0.352288	0.357515	0.060842
	C301	C	0.321240	0.372715	-0.013469
	C302	C	0.381600	0.352540	0.041830
	N303	N	0.359852	0.360701	0.015276
	O304	O	0.415158	0.341818	0.069080
	O305	O	0.296706	0.380921	-0.039217
	C306	C	0.181842	0.036206	0.008614
	C307	C	0.211923	0.037176	0.024975
	C308	C	0.201984	0.062987	0.003535
	C309	C	0.164656	0.086268	-0.031677
	C310	C	0.134600	0.085285	-0.047987
	C311	C	0.144448	0.059493	-0.026728
	H312	H	0.240929	0.019158	0.052313
	H313	H	0.105624	0.103296	-0.075303
	C314	C	0.164250	0.110302	-0.046854
	C315	C	0.226642	0.071274	0.011895
	N316	N	0.202042	0.099814	-0.019808
	O317	O	0.260390	0.057107	0.039361
	O318	O	0.137894	0.133879	-0.075791
	C319	C	0.182066	0.012168	0.023324
	C320	C	0.119428	0.051214	-0.035960
	N321	N	0.143733	0.022723	-0.004900
	O322	O	0.085467	0.065325	-0.063837
	O323	O	0.208654	-0.011404	0.052684
	C324	C	0.398998	0.295717	0.034745
	C325	C	0.404641	0.272223	0.048777
	C326	C	0.392849	0.272712	0.031965
	C327	C	0.376568	0.295157	0.003110
	C328	C	0.371358	0.318483	-0.010585
	C329	C	0.383039	0.318022	0.006135
	H330	H	0.416793	0.254960	0.070821
	H331	H	0.358689	0.335985	-0.032957
	C332	C	0.365963	0.289259	-0.009290
	C333	C	0.393626	0.251516	0.039312
	N334	N	0.376817	0.262897	0.013425
	O335	O	0.405859	0.229174	0.062240
	O336	O	0.351262	0.303369	-0.033411
	C337	C	0.406484	0.302680	0.044874
	C338	C	0.379584	0.340043	-0.003167
	N339	N	0.393811	0.329593	0.020853
	O340	O	0.367522	0.362264	-0.026056
	O341	O	0.420205	0.288761	0.068351
	C342	C	0.260620	0.222446	-0.047209
	C343	C	0.231269	0.223310	-0.069886
	C344	C	0.232030	0.201162	-0.054750
	C345	C	0.259478	0.180083	-0.019855
	C346	C	0.287803	0.179816	0.002168
	C347	C	0.287994	0.201419	-0.012336
	H348	H	0.210273	0.239457	-0.096786
	H349	H	0.308772	0.163404	0.029099
	C350	C	0.254683	0.158312	-0.010633
	C351	C	0.208317	0.193773	-0.069288
	N352	N	0.225267	0.167119	-0.040488
	O353	O	0.181133	0.206975	-0.098808
	O354	O	0.272412	0.137082	0.016641
	C355	C	0.270873	0.241042	-0.053044
	C356	C	0.316808	0.205797	0.005393
	N357	N	0.305568	0.229240	-0.019998
	O358	O	0.344573	0.192613	0.035070
	O359	O	0.254098	0.261748	-0.079738
	C360	C	0.028367	0.134160	0.135272
	C361	C	0.027987	0.120102	0.135438
	C362	C	0.014907	0.104926	0.137569
	C363	C	0.003098	0.103262	0.140289
	C364	C	0.004202	0.117286	0.140516
	C365	C	0.016486	0.133010	0.137694
	H366	H	-0.007146	0.091593	0.141759
	H367	H	0.016455	0.144296	0.137048
	H368	H	0.037394	0.121122	0.133680
	C369	C	0.040736	0.187544	0.110912
	C370	C	0.031625	0.212920	0.091999
	C371	C	0.061689	0.214046	0.108554
	C372	C	0.098135	0.191588	0.141310
	C373	C	0.107006	0.166310	0.159817
	C374	C	0.077167	0.164992	0.143713
	H375	H	0.003461	0.230415	0.066640
	H376	H	0.135203	0.148863	0.185179
	C377	C	0.123479	0.199937	0.151837
	C378	C	0.062415	0.237384	0.097130
	N379	N	0.100562	0.227258	0.125008
	O380	O	0.036586	0.260131	0.070453
	O381	O	0.156533	0.186721	0.177563
	C382	C	0.016164	0.178894	0.102145
	C383	C	0.077115	0.141050	0.157054
	N384	N	0.040065	0.150757	0.131425
	O385	O	0.102597	0.118078	0.183778
	O386	O	-0.016985	0.192408	0.076153
	C387	C	-0.002680	0.084626	0.115392
	C388	C	-0.015222	0.087394	0.096744
	C389	C	-0.012660	0.065578	0.107279
	C390	C	0.002046	0.042414	0.135031
	C391	C	0.013951	0.039861	0.153223
	C392	C	0.011128	0.061758	0.142517
	H393	H	-0.025880	0.105234	0.075789
	H394	H	0.024414	0.022073	0.174033
	C395	C	0.003061	0.022369	0.141038
	C396	C	-0.023262	0.061642	0.093376
	N397	N	-0.012498	0.035165	0.115191
	O398	O	-0.037896	0.077261	0.068804
	O399	O	0.015075	-0.000368	0.163441
	C400	C	-0.001794	0.104147	0.110648
	C401	C	0.021115	0.065991	0.155926
	N402	N	0.012029	0.091948	0.135246
	O403	O	0.033964	0.051025	0.179226
	O404	O	-0.011085	0.126079	0.090111
	C405	C	0.482372	0.119593	0.151469
	C406	C	0.486077	0.120671	0.162955
	C407	C	0.455322	0.126851	0.145832
	C408	C	0.423410	0.131188	0.119535
	C409	C	0.419593	0.130250	0.107899
	C410	C	0.450037	0.124536	0.124546
	H411	H	0.510914	0.117187	0.183493
	H412	H	0.394594	0.133904	0.087211
	C413	C	0.396297	0.137009	0.107290
	C414	C	0.449276	0.130388	0.150651
	N415	N	0.412994	0.136974	0.126225
	O416	O	0.470411	0.128411	0.170806
	O417	O	0.366342	0.140687	0.085996
	C418	C	0.509290	0.114107	0.163394
	C419	C	0.454763	0.123018	0.117709
	N420	N	0.490902	0.116640	0.141944
	O421	O	0.432993	0.126241	0.096372
	O422	O	0.540454	0.108553	0.186467
	C423	C	0.118979	0.266376	0.129347
	C424	C	0.105424	0.252483	0.125878
	C425	C	0.115031	0.241274	0.129030
	C426	C	0.138327	0.243366	0.136180
	C427	C	0.151934	0.257021	0.140127
	C428	C	0.142237	0.268800	0.136468
	H429	H	0.145597	0.234677	0.138579
	H430	H	0.152688	0.279489	0.139304
	H431	H	0.087288	0.251005	0.120159
	C432	C	-0.021785	-0.008864	0.119227
	C433	C	-0.023183	0.004797	0.118613
	C434	C	-0.012810	0.021811	0.114368
	C435	C	-0.001789	0.025538	0.110209
	C436	C	-0.001241	0.011940	0.110363
	C437	C	-0.010683	-0.005618	0.115357
	H438	H	0.006319	0.038621	0.107027
	H439	H	-0.009627	-0.016436	0.116046
	H440	H	-0.032195	0.002220	0.121310
	C441	C	0.384857	0.159021	0.121498
	C442	C	0.400364	0.155655	0.123942
	C443	C	0.396205	0.141412	0.122608
	C444	C	0.376827	0.130730	0.118847
	C445	C	0.360618	0.135255	0.115260
	C446	C	0.364376	0.149362	0.116495
	H447	H	0.374140	0.119265	0.118545
	H448	H	0.352432	0.152166	0.114538
	H449	H	0.415552	0.163717	0.127172
	C450	C	0.122673	0.291085	0.140808
	C451	C	0.140781	0.291632	0.159663
	C452	C	0.124478	0.317201	0.138637
	C453	C	0.091611	0.340489	0.101174
	C454	C	0.073040	0.339902	0.082182
	C455	C	0.090098	0.314434	0.103425
	H456	H	0.166386	0.273586	0.188746
	H457	H	0.047913	0.358015	0.053224
	C458	C	0.083439	0.364385	0.087684
	C459	C	0.138782	0.325440	0.150503
	N460	N	0.113777	0.353966	0.118868
	O461	O	0.166272	0.311299	0.180584
	O462	O	0.057263	0.387894	0.057011
	C463	C	0.134554	0.267735	0.155221
	C464	C	0.080398	0.306942	0.092727
	N465	N	0.109197	0.278956	0.125314
	O466	O	0.054385	0.321358	0.063016
	O467	O	0.160484	0.244181	0.185782
	C468	C	0.188884	0.288465	0.133349
	C469	C	0.185829	0.310071	0.115073
	C470	C	0.214119	0.312159	0.134040
	C471	C	0.243749	0.293710	0.169043
	C472	C	0.247449	0.271666	0.187734
	C473	C	0.218894	0.269799	0.168565
	H474	H	0.162784	0.324553	0.087836
	H475	H	0.270149	0.257457	0.214724
	C476	C	0.267345	0.303016	0.180134
	C477	C	0.217923	0.333808	0.121670
	N478	N	0.249802	0.327297	0.150289
	O479	O	0.198314	0.353426	0.093351
	O480	O	0.295331	0.292700	0.208216
	C481	C	0.161624	0.281811	0.119925
	C482	C	0.212423	0.250230	0.179182
	N483	N	0.176296	0.259865	0.147885
	O484	O	0.232883	0.230502	0.207989
	O485	O	0.132747	0.292579	0.091398
	C486	C	0.019754	0.010833	0.098428
	C487	C	0.016897	0.008327	0.088351
	C488	C	0.048313	0.001147	0.106545
	C489	C	0.080283	-0.003228	0.132920
	C490	C	0.083000	-0.000506	0.142784
	C491	C	0.051571	0.006695	0.124576
	H492	H	-0.007671	0.011397	0.068222
	H493	H	0.107852	-0.004040	0.163363
	C494	C	0.108456	-0.010861	0.146937
	C495	C	0.054785	-0.003227	0.102527
	N496	N	0.090839	-0.009490	0.126634
	O497	O	0.034236	-0.002033	0.083183
	O498	O	0.140032	-0.017120	0.170718
	C499	C	-0.007547	0.016865	0.085888
	C500	C	0.045429	0.010301	0.129279
	N501	N	0.010240	0.015172	0.106482
	O502	O	0.065339	0.009789	0.147867
	O503	O	-0.038464	0.022032	0.063154
	C504	C	0.431574	0.458258	0.110478
	C505	C	0.401990	0.456406	0.094062
	C506	C	0.412255	0.430762	0.113598
	C507	C	0.449460	0.408492	0.147177
	C508	C	0.479043	0.410401	0.163533
	C509	C	0.468841	0.436062	0.144039
	H510	H	0.373123	0.473647	0.068036
	H511	H	0.507919	0.393126	0.189614
	C512	C	0.450123	0.384299	0.160425
	C513	C	0.387944	0.421673	0.104310
	N514	N	0.412472	0.393654	0.133652
	O515	O	0.354453	0.434873	0.077842
	O516	O	0.476529	0.361467	0.187789
	C517	C	0.430434	0.482536	0.097034
	C518	C	0.492877	0.445493	0.153097
	N519	N	0.467948	0.473466	0.123701
	O520	O	0.526389	0.432658	0.179444
	O521	O	0.403766	0.505268	0.069604
	C522	C	0.326435	0.108193	0.124984
	C523	C	0.329131	0.094552	0.142660
	C524	C	0.295636	0.107148	0.120015
	C525	C	0.261522	0.131269	0.082246
	C526	C	0.258614	0.144599	0.064504
	C527	C	0.292374	0.132420	0.087236
	H528	H	0.355668	0.076002	0.171980
	H529	H	0.232363	0.163568	0.035252
	C530	C	0.232189	0.139948	0.066748
	C531	C	0.289379	0.099658	0.130008
	N532	N	0.251273	0.120714	0.096947
	O533	O	0.311633	0.080167	0.159721
	O534	O	0.199197	0.159365	0.035360
	C535	C	0.357357	0.102333	0.140831
	C536	C	0.300420	0.143039	0.077704
	N537	N	0.340256	0.125119	0.111199
	O538	O	0.278483	0.163164	0.048064
	O539	O	0.390394	0.082943	0.172143
	C540	C	0.386241	0.200734	0.117247
	C541	C	0.376197	0.223447	0.103087
	C542	C	0.387132	0.218994	0.121953
	C543	C	0.408253	0.193326	0.153780
	C544	C	0.417974	0.170740	0.167752
	C545	C	0.405758	0.175465	0.148099
	H546	H	0.360116	0.243296	0.078588
	H547	H	0.432628	0.151127	0.191318
	C548	C	0.414194	0.195546	0.166499
	C549	C	0.377180	0.238799	0.112299
	N550	N	0.391953	0.223382	0.138771
	O551	O	0.359476	0.262898	0.087086
	O552	O	0.432495	0.177865	0.193758
	C553	C	0.377488	0.197906	0.103354
	C554	C	0.408523	0.156146	0.154025
	N555	N	0.391485	0.170670	0.126661
	O556	O	0.420936	0.133045	0.176319
	O557	O	0.361568	0.214789	0.077698
	C558	C	0.155487	0.390279	0.124710
	C559	C	0.145148	0.401615	0.120935
	C560	C	0.123642	0.397180	0.116019
	C561	C	0.112947	0.381429	0.115351
	C562	C	0.124290	0.370011	0.119799
	C563	C	0.145364	0.374338	0.124330
	H564	H	0.096508	0.378125	0.111661
	H565	H	0.153493	0.365646	0.127270
	H566	H	0.153124	0.413929	0.121218
	C567	C	0.263279	0.374880	0.142375
	C568	C	0.274580	0.382417	0.137220
	C569	C	0.277808	0.371007	0.136835
	C570	C	0.270401	0.352381	0.141809
	C571	C	0.258969	0.345484	0.146606
	C572	C	0.255101	0.356636	0.146780
	H573	H	0.273067	0.343605	0.141592
	H574	H	0.245925	0.351205	0.150270
	H575	H	0.280417	0.396742	0.133456
	C576	C	0.114761	-0.020818	0.121997
	C577	C	0.102047	-0.022142	0.123859
	C578	C	0.104122	-0.008829	0.125200
	C579	C	0.118001	0.005957	0.124096
	C580	C	0.130648	0.006862	0.122383
	C581	C	0.129400	-0.006529	0.121517
	H582	H	0.118733	0.016752	0.124260
	H583	H	0.139541	-0.005781	0.120442
	H584	H	0.090497	-0.033038	0.123869
	C585	C	0.391645	0.345364	0.143292
	C586	C	0.404043	0.361075	0.140627
	C587	C	0.401037	0.376722	0.137407
	C588	C	0.386444	0.376625	0.137281
	C589	C	0.374407	0.360707	0.140115
	C590	C	0.376548	0.345127	0.142864
	H591	H	0.384504	0.388649	0.135041
	H592	H	0.366991	0.333011	0.144909
	H593	H	0.415539	0.361284	0.140835
	C594	C	0.223983	0.148443	0.088830
	C595	C	0.212112	0.134194	0.093638
	C596	C	0.213058	0.115458	0.099224
	C597	C	0.225271	0.111004	0.099793
	C598	C	0.237205	0.125393	0.095186
	C599	C	0.236815	0.144088	0.089797
	H600	H	0.226483	0.096230	0.104673
	H601	H	0.246148	0.155060	0.086277
	H602	H	0.202952	0.137418	0.093491
	C603	C	0.331553	0.234949	0.115463
	C604	C	0.341663	0.245877	0.122210
	C605	C	0.367458	0.250795	0.132725
	C606	C	0.384106	0.244172	0.137715
	C607	C	0.373982	0.232746	0.131477
	C608	C	0.347452	0.228341	0.119935
	H609	H	0.404276	0.247731	0.146201
	H610	H	0.339804	0.219574	0.115083
	H611	H	0.331179	0.249341	0.120973
	C612	C	0.222330	0.383968	0.152009
	C613	C	0.255147	0.370155	0.174622
	C614	C	0.250927	0.380967	0.156790
	C615	C	0.216840	0.404635	0.119064
	C616	C	0.184267	0.418663	0.096555
	C617	C	0.187950	0.407294	0.114217
	H618	H	0.281701	0.351857	0.203927
	H619	H	0.157586	0.436515	0.067335
	C620	C	0.221795	0.409287	0.109247
	C621	C	0.278197	0.369084	0.172226
	N622	N	0.257990	0.385975	0.142133
	O623	O	0.310313	0.348498	0.203692
	O624	O	0.200032	0.428157	0.079888
	C625	C	0.215563	0.376489	0.161624
	C626	C	0.157859	0.415305	0.098303
	N627	N	0.175993	0.395265	0.128150
	O628	O	0.124598	0.434317	0.066745
	O629	O	0.238044	0.358171	0.191215
	C630	C	0.099608	0.460560	0.099735
	C631	C	0.090427	0.463883	0.082544
	C632	C	0.098700	0.441161	0.096105
	C633	C	0.114914	0.416725	0.124830
	C634	C	0.123794	0.413573	0.141804
	C635	C	0.115953	0.436253	0.128552
	H636	H	0.078645	0.482641	0.060855
	H637	H	0.136574	0.394641	0.164199
	C638	C	0.121728	0.396472	0.133357
	C639	C	0.094724	0.437506	0.085418
	N640	N	0.111744	0.409941	0.110543
	O641	O	0.080755	0.454061	0.060995
	O642	O	0.132762	0.373628	0.154394
	C643	C	0.095488	0.480601	0.092468
	C644	C	0.123331	0.439955	0.141103
	N645	N	0.111174	0.466858	0.118740
	O646	O	0.136509	0.423931	0.164892
	O647	O	0.081762	0.503926	0.069147
	C648	C	0.318211	0.372700	0.120355
	C649	C	0.286515	0.382690	0.100797
	C650	C	0.293486	0.379616	0.116645
	C651	C	0.329715	0.367151	0.149944
	C652	C	0.361401	0.357204	0.169490
	C653	C	0.354345	0.360477	0.153494
	H654	H	0.258515	0.391991	0.075239
	H655	H	0.389537	0.347509	0.195342
	C656	C	0.327348	0.366069	0.159738
	C657	C	0.266587	0.387220	0.103801
	N658	N	0.289039	0.377597	0.131569
	O659	O	0.232720	0.398952	0.075886
	O660	O	0.352282	0.357504	0.185847
	C661	C	0.321232	0.372707	0.111533
	C662	C	0.381591	0.352537	0.166828
	N663	N	0.359843	0.360698	0.140274
	O664	O	0.415149	0.341818	0.194077
	O665	O	0.296698	0.380913	0.085786
	C666	C	0.181806	0.036240	0.133573
	C667	C	0.211884	0.037214	0.149931
	C668	C	0.201939	0.063027	0.128485
	C669	C	0.164607	0.086306	0.093269
	C670	C	0.134555	0.085319	0.076962
	C671	C	0.144408	0.059525	0.098227
	H672	H	0.240892	0.019198	0.177272
	H673	H	0.105576	0.103328	0.049644
	C674	C	0.164195	0.110342	0.078086
	C675	C	0.226593	0.071318	0.136841
	N676	N	0.201988	0.099857	0.105133
	O677	O	0.260342	0.057153	0.164308
	O678	O	0.137834	0.133919	0.049144
	C679	C	0.182037	0.012199	0.148289
	C680	C	0.119393	0.051242	0.089000
	N681	N	0.143704	0.022751	0.120065
	O682	O	0.085432	0.065350	0.061123
	O683	O	0.208629	-0.011372	0.177654
	C684	C	0.398982	0.295729	0.159727
	C685	C	0.404620	0.272238	0.173754
	C686	C	0.392830	0.272729	0.156940
	C687	C	0.376554	0.295175	0.128089
	C688	C	0.371350	0.318498	0.114400
	C689	C	0.383028	0.318035	0.131121
	H690	H	0.416767	0.254974	0.195794
	H691	H	0.358686	0.336001	0.092032
	C692	C	0.365949	0.289281	0.115687
	C693	C	0.393603	0.251537	0.164282
	N694	N	0.376796	0.262920	0.138396
	O695	O	0.405831	0.229196	0.187207
	O696	O	0.351254	0.303391	0.091569
	C697	C	0.406465	0.302689	0.169857
	C698	C	0.379576	0.340053	0.121823
	N699	N	0.393797	0.329601	0.145840
	O700	O	0.367519	0.362274	0.098938
	O701	O	0.420183	0.288769	0.193333
	C702	C	0.260596	0.222471	0.077761
	C703	C	0.231237	0.223340	0.055080
	C704	C	0.231999	0.201192	0.070216
	C705	C	0.259456	0.180107	0.105117
	C706	C	0.287792	0.179834	0.127146
	C707	C	0.287979	0.201438	0.112640
	H708	H	0.210233	0.239491	0.028175
	H709	H	0.308769	0.163417	0.154082
	C710	C	0.254658	0.158337	0.114336
	C711	C	0.208275	0.193809	0.055670
	N712	N	0.225229	0.167152	0.084471
	O713	O	0.181080	0.207018	0.026143
	O714	O	0.272393	0.137103	0.141613
	C715	C	0.270847	0.241068	0.071924
	C716	C	0.316797	0.205814	0.130370
	N717	N	0.305548	0.229263	0.104974
	O718	O	0.344571	0.192625	0.160053
	O719	O	0.254066	0.261777	0.045226
	C720	C	0.028315	0.134205	0.260208
	C721	C	0.027937	0.120145	0.260376
	C722	C	0.014863	0.104965	0.262515
	C723	C	0.003056	0.103301	0.265236
	C724	C	0.004160	0.117328	0.265461
	C725	C	0.016439	0.133054	0.262635
	H726	H	-0.007184	0.091630	0.266711
	H727	H	0.016408	0.144341	0.261987
	H728	H	0.037342	0.121165	0.258617
	C729	C	0.040662	0.187599	0.235821
	C730	C	0.031540	0.212980	0.216895
	C731	C	0.061599	0.214111	0.233444
	C732	C	0.098050	0.191654	0.266206
	C733	C	0.106932	0.166372	0.284726
	C734	C	0.077098	0.165048	0.268628
	H735	H	0.003371	0.230475	0.191530
	H736	H	0.135134	0.148925	0.310093
	C737	C	0.123386	0.200010	0.276724
	C738	C	0.062313	0.237457	0.222005
	N739	N	0.100458	0.227335	0.249880
	O740	O	0.036476	0.260205	0.195318
	O741	O	0.156443	0.186795	0.302452
	C742	C	0.016097	0.178945	0.227063
	C743	C	0.077056	0.141102	0.281981
	N744	N	0.040007	0.150806	0.256354
	O745	O	0.102545	0.118128	0.308712
	O746	O	-0.017054	0.192456	0.201070
	C747	C	-0.002717	0.084653	0.240351
	C748	C	-0.015259	0.087417	0.221705
	C749	C	-0.012687	0.065596	0.232250
	C750	C	0.002027	0.042433	0.260007
	C751	C	0.013930	0.039884	0.278196
	C752	C	0.011098	0.061785	0.267481
	H753	H	-0.025924	0.105257	0.200745
	H754	H	0.024400	0.022095	0.299011
	C755	C	0.003052	0.022382	0.266024
	C756	C	-0.023289	0.061656	0.218350
	N757	N	-0.012506	0.035174	0.240180
	O758	O	-0.037909	0.077269	0.193788
	O759	O	0.015073	-0.000356	0.288433
	C760	C	-0.001836	0.104178	0.235600
	C761	C	0.021082	0.066023	0.280885
	N762	N	0.011989	0.091983	0.260198
	O763	O	0.033934	0.051058	0.304186
	O764	O	-0.011131	0.126111	0.215059
	C765	C	0.482359	0.119610	0.276447
	C766	C	0.486083	0.120669	0.287956
	C767	C	0.455331	0.126847	0.270837
	C768	C	0.423405	0.131203	0.244522
	C769	C	0.419570	0.130284	0.232864
	C770	C	0.450011	0.124570	0.249508
	H771	H	0.510930	0.117170	0.308508
	H772	H	0.394560	0.133952	0.212163
	C773	C	0.396299	0.137021	0.232286
	C774	C	0.449306	0.130364	0.275682
	N775	N	0.413016	0.136966	0.251244
	O776	O	0.470448	0.128382	0.295843
	O777	O	0.366336	0.140711	0.210980
	C778	C	0.509268	0.114129	0.288363
	C779	C	0.454722	0.123066	0.242654
	N780	N	0.490865	0.116679	0.266894
	O781	O	0.432940	0.126303	0.221302
	O782	O	0.540438	0.108567	0.311442
	C783	C	0.118851	0.266470	0.254192
	C784	C	0.105302	0.252574	0.250729
	C785	C	0.114916	0.241360	0.253890
	C786	C	0.138213	0.243450	0.261041
	C787	C	0.151814	0.257110	0.264981
	C788	C	0.142110	0.268894	0.261314
	H789	H	0.145492	0.234756	0.263449
	H790	H	0.152558	0.279585	0.264146
	H791	H	0.087166	0.251095	0.245009
	C792	C	-0.021776	-0.008865	0.244234
	C793	C	-0.023179	0.004799	0.243613
	C794	C	-0.012810	0.021815	0.239364
	C795	C	-0.001785	0.025540	0.235209
	C796	C	-0.001231	0.011938	0.235370
	C797	C	-0.010669	-0.005622	0.240368
	H798	H	0.006321	0.038624	0.232026
	H799	H	-0.009610	-0.016443	0.241060
	H800	H	-0.032194	0.002224	0.246308
	C801	C	0.384909	0.158984	0.246555
	C802	C	0.400404	0.155628	0.248984
	C803	C	0.396242	0.141391	0.247645
	C804	C	0.376874	0.130701	0.243894
	C805	C	0.360678	0.135213	0.240323
	C806	C	0.364437	0.149317	0.241562
	H807	H	0.374185	0.119239	0.243588
	H808	H	0.352502	0.152112	0.239617
	H809	H	0.415584	0.163696	0.252207
	C810	C	0.122559	0.291161	0.265674
	C811	C	0.140672	0.291696	0.284540
	C812	C	0.124384	0.317261	0.263528
	C813	C	0.091526	0.340557	0.226067
	C814	C	0.072950	0.339982	0.207063
	C815	C	0.089993	0.314518	0.228292
	H816	H	0.166271	0.273645	0.313623
	H817	H	0.047830	0.358101	0.178107
	C818	C	0.083371	0.364444	0.212595
	C819	C	0.138699	0.325486	0.275410
	N820	N	0.113709	0.354013	0.243787
	O821	O	0.166185	0.311336	0.305495
	O822	O	0.057207	0.387957	0.181928
	C823	C	0.134426	0.267818	0.280073
	C824	C	0.080286	0.307037	0.217583
	N825	N	0.109071	0.279049	0.250161
	O826	O	0.054278	0.321461	0.187869
	O827	O	0.160346	0.244261	0.310628
	C828	C	0.188804	0.288534	0.258245
	C829	C	0.185769	0.310133	0.239985
	C830	C	0.214070	0.312209	0.258967
	C831	C	0.243691	0.293754	0.293969
	C832	C	0.247371	0.271716	0.312645
	C833	C	0.218807	0.269861	0.293460
	H834	H	0.162731	0.324620	0.212749
	H835	H	0.270065	0.257503	0.339633
	C836	C	0.267300	0.303047	0.305078
	C837	C	0.217896	0.333847	0.246619
	N838	N	0.249774	0.327327	0.275245
	O839	O	0.198303	0.353465	0.218309
	O840	O	0.295283	0.292724	0.333164
	C841	C	0.161529	0.281893	0.244801
	C842	C	0.212317	0.250300	0.304058
	N843	N	0.176187	0.259948	0.272751
	O844	O	0.232766	0.230571	0.332860
	O845	O	0.132651	0.292672	0.216267
	C846	C	0.019771	0.010819	0.223447
	C847	C	0.016919	0.008306	0.213376
	C848	C	0.048336	0.001123	0.231574
	C849	C	0.080305	-0.003248	0.257945
	C850	C	0.083017	-0.000520	0.267802
	C851	C	0.051587	0.006684	0.249591
	H852	H	-0.007648	0.011373	0.193251
	H853	H	0.107868	-0.004052	0.288379
	C854	C	0.108479	-0.010884	0.271965
	C855	C	0.054814	-0.003260	0.227564
	N856	N	0.090862	-0.009515	0.251664
	O857	O	0.034259	-0.002058	0.208212
	O858	O	0.140055	-0.017144	0.295745
	C859	C	-0.007533	0.016856	0.210902
	C860	C	0.045440	0.010297	0.254288
	N861	N	0.010252	0.015167	0.231491
	O862	O	0.065347	0.009790	0.272871
	O863	O	-0.038449	0.022021	0.188169
	C864	C	0.431585	0.458255	0.235486
	C865	C	0.402001	0.456403	0.219068
	C866	C	0.412267	0.430759	0.238604
	C867	C	0.449472	0.408489	0.272185
	C868	C	0.479056	0.410398	0.288542
	C869	C	0.468854	0.436058	0.269048
	H870	H	0.373133	0.473644	0.193040
	H871	H	0.507932	0.393123	0.314624
	C872	C	0.450135	0.384296	0.285433
	C873	C	0.387956	0.421669	0.229316
	N874	N	0.412482	0.393651	0.258655
	O875	O	0.354460	0.434873	0.202837
	O876	O	0.476542	0.361463	0.312798
	C877	C	0.430444	0.482533	0.222042
	C878	C	0.492889	0.445490	0.278107
	N879	N	0.467959	0.473463	0.248710
	O880	O	0.526402	0.432655	0.304455
	O881	O	0.403776	0.505265	0.194610
	C882	C	0.326510	0.108141	0.250063
	C883	C	0.329209	0.094503	0.267740
	C884	C	0.295712	0.107095	0.245095
	C885	C	0.261594	0.131209	0.207324
	C886	C	0.258683	0.144537	0.189581
	C887	C	0.292445	0.132362	0.212314
	H888	H	0.355749	0.075958	0.297060
	H889	H	0.232428	0.163501	0.160329
	C890	C	0.232258	0.139886	0.191824
	C891	C	0.289454	0.099606	0.255087
	N892	N	0.251345	0.120659	0.222024
	O893	O	0.311718	0.080129	0.284802
	O894	O	0.199261	0.159296	0.160436
	C895	C	0.357431	0.102286	0.265907
	C896	C	0.300488	0.142983	0.202779
	N897	N	0.340325	0.125070	0.236271
	O898	O	0.278547	0.163105	0.173137
	O899	O	0.390471	0.082900	0.297220
	C900	C	0.386298	0.200692	0.242312
	C901	C	0.376257	0.223404	0.228154
	C902	C	0.387186	0.218951	0.247017
	C903	C	0.408298	0.193284	0.278839
	C904	C	0.418017	0.170698	0.292808
	C905	C	0.405808	0.175424	0.273159
	H906	H	0.360182	0.243253	0.203658
	H907	H	0.432664	0.151086	0.316369
	C908	C	0.414233	0.195504	0.291553
	C909	C	0.377234	0.238756	0.237363
	N910	N	0.391997	0.223340	0.263828
	O911	O	0.359537	0.262854	0.212154
	O912	O	0.432524	0.177823	0.318807
	C913	C	0.377548	0.197865	0.228419
	C914	C	0.408571	0.156107	0.279082
	N915	N	0.391538	0.170631	0.251721
	O916	O	0.420979	0.133006	0.301372
	O917	O	0.361635	0.214747	0.202768
	C918	C	0.155462	0.390295	0.249680
	C919	C	0.145136	0.401622	0.245919
	C920	C	0.123624	0.397190	0.240997
	C921	C	0.112911	0.381452	0.240308
	C922	C	0.124241	0.370044	0.244741
	C923	C	0.145321	0.374367	0.249279
	H924	H	0.096466	0.378152	0.236612
	H925	H	0.153442	0.365681	0.252209
	H926	H	0.153127	0.413926	0.246219
	C927	C	0.263270	0.374895	0.267358
	C928	C	0.274579	0.382430	0.262210
	C929	C	0.277808	0.371024	0.261821
	C930	C	0.270394	0.352402	0.266787
	C931	C	0.258952	0.345508	0.271576
	C932	C	0.255083	0.356656	0.271751
	H933	H	0.273060	0.343629	0.266568
	H934	H	0.245901	0.351227	0.275234
	H935	H	0.280421	0.396753	0.258452
	C936	C	0.114776	-0.020837	0.247017
	C937	C	0.102064	-0.022163	0.248881
	C938	C	0.104144	-0.008853	0.250227
	C939	C	0.118026	0.005931	0.249126
	C940	C	0.130671	0.006837	0.247412
	C941	C	0.129417	-0.006549	0.246540
	H942	H	0.118762	0.016724	0.249294
	H943	H	0.139557	-0.005801	0.245463
	H944	H	0.090514	-0.033058	0.248890
	C945	C	0.391657	0.345359	0.268300
	C946	C	0.404055	0.361070	0.265635
	C947	C	0.401047	0.376720	0.262412
	C948	C	0.386454	0.376625	0.262283
	C949	C	0.374417	0.360706	0.265119
	C950	C	0.376559	0.345124	0.267870
	H951	H	0.384511	0.388651	0.260040
	H952	H	0.367003	0.333008	0.269917
	H953	H	0.415552	0.361277	0.265844
	C954	C	0.224031	0.148403	0.213881
	C955	C	0.212162	0.134153	0.218691
	C956	C	0.213115	0.115414	0.224285
	C957	C	0.225336	0.110955	0.224862
	C958	C	0.237270	0.125343	0.220255
	C959	C	0.236870	0.144043	0.214856
	H960	H	0.226553	0.096177	0.229748
	H961	H	0.246202	0.155017	0.211334
	H962	H	0.202995	0.137383	0.218537
	C963	C	0.331578	0.234922	0.240498
	C964	C	0.341685	0.245852	0.247241
	C965	C	0.367484	0.250768	0.257761
	C966	C	0.384139	0.244138	0.262760
	C967	C	0.374020	0.232708	0.256527
	C968	C	0.347486	0.228307	0.244980
	H969	H	0.404312	0.247695	0.271250
	H970	H	0.339840	0.219538	0.240130
	H971	H	0.331196	0.249320	0.245998
	C972	C	0.222315	0.383977	0.276990
	C973	C	0.255131	0.370161	0.299605
	C974	C	0.250915	0.380974	0.281775
	C975	C	0.216832	0.404647	0.244048
	C976	C	0.184259	0.418678	0.221539
	C977	C	0.187939	0.407308	0.239198
	H978	H	0.281682	0.351859	0.328909
	H979	H	0.157581	0.436534	0.192318
	C980	C	0.221788	0.409299	0.234232
	C981	C	0.278184	0.369089	0.297210
	N982	N	0.257982	0.385986	0.267119
	O983	O	0.310303	0.348508	0.328677
	O984	O	0.200027	0.428170	0.204874
	C985	C	0.215544	0.376497	0.286603
	C986	C	0.157847	0.415322	0.223282
	N987	N	0.175976	0.395279	0.253127
	O988	O	0.124587	0.434338	0.191724
	O989	O	0.238022	0.358175	0.316193
	C990	C	0.099614	0.460550	0.224744
	C991	C	0.090428	0.463878	0.207547
	C992	C	0.098701	0.441158	0.221105
	C993	C	0.114923	0.416718	0.249836
	C994	C	0.123808	0.413562	0.266815
	C995	C	0.115964	0.436241	0.253564
	H996	H	0.078641	0.482639	0.185855
	H997	H	0.136593	0.394627	0.289213
	C998	C	0.121737	0.396468	0.258360
	C999	C	0.094722	0.437508	0.210413
	N1000	N	0.111737	0.409943	0.235534
	O1001	O	0.080729	0.454069	0.185974
	O1002	O	0.132782	0.373621	0.279404
	C1003	C	0.095495	0.480589	0.217479
	C1004	C	0.123345	0.439939	0.266119
	N1005	N	0.111184	0.466843	0.243755
	O1006	O	0.136525	0.423912	0.289910
	O1007	O	0.081766	0.503915	0.194157
	C1008	C	0.318218	0.372711	0.245351
	C1009	C	0.286521	0.382705	0.225789
	C1010	C	0.293491	0.379633	0.241637
	C1011	C	0.329721	0.367163	0.274939
	C1012	C	0.361409	0.357211	0.294488
	C1013	C	0.354353	0.360484	0.278492
	H1014	H	0.258521	0.392008	0.200230
	H1015	H	0.389546	0.347513	0.320342
	C1016	C	0.327353	0.366082	0.284732
	C1017	C	0.266591	0.387241	0.228789
	N1018	N	0.289042	0.377615	0.256559
	O1019	O	0.232722	0.398978	0.200870
	O1020	O	0.352288	0.357515	0.310842
	C1021	C	0.321240	0.372715	0.236531
	C1022	C	0.381600	0.352540	0.291830
	N1023	N	0.359852	0.360701	0.265276
	O1024	O	0.415158	0.341818	0.319080
	O1025	O	0.296706	0.380921	0.210783
	C1026	C	0.181842	0.036206	0.258614
	C1027	C	0.211923	0.037176	0.274975
	C1028	C	0.201984	0.062987	0.253535
	C1029	C	0.164656	0.086268	0.218323
	C1030	C	0.134600	0.085285	0.202013
	C1031	C	0.144448	0.059493	0.223272
	H1032	H	0.240929	0.019158	0.302313
	H1033	H	0.105624	0.103296	0.174697
	C1034	C	0.164250	0.110302	0.203146
	C1035	C	0.226642	0.071274	0.261895
	N1036	N	0.202042	0.099814	0.230192
	O1037	O	0.260390	0.057107	0.289361
	O1038	O	0.137894	0.133879	0.174209
	C1039	C	0.182066	0.012168	0.273324
	C1040	C	0.119428	0.051214	0.214040
	N1041	N	0.143733	0.022723	0.245100
	O1042	O	0.085467	0.065325	0.186163
	O1043	O	0.208654	-0.011404	0.302684
	C1044	C	0.398998	0.295717	0.284745
	C1045	C	0.404641	0.272223	0.298777
	C1046	C	0.392849	0.272712	0.281965
	C1047	C	0.376568	0.295157	0.253110
	C1048	C	0.371358	0.318483	0.239415
	C1049	C	0.383039	0.318022	0.256135
	H1050	H	0.416793	0.254960	0.320821
	H1051	H	0.358689	0.335985	0.217043
	C1052	C	0.365963	0.289259	0.240710
	C1053	C	0.393626	0.251516	0.289312
	N1054	N	0.376817	0.262897	0.263425
	O1055	O	0.405859	0.229174	0.312240
	O1056	O	0.351262	0.303369	0.216589
	C1057	C	0.406484	0.302680	0.294874
	C1058	C	0.379584	0.340043	0.246833
	N1059	N	0.393811	0.329593	0.270853
	O1060	O	0.367522	0.362264	0.223944
	O1061	O	0.420205	0.288761	0.318351
	C1062	C	0.260620	0.222446	0.202791
	C1063	C	0.231269	0.223310	0.180114
	C1064	C	0.232030	0.201162	0.195250
	C1065	C	0.259478	0.180083	0.230145
	C1066	C	0.287803	0.179816	0.252168
	C1067	C	0.287994	0.201419	0.237664
	H1068	H	0.210273	0.239457	0.153214
	H1069	H	0.308772	0.163404	0.279099
	C1070	C	0.254683	0.158312	0.239367
	C1071	C	0.208317	0.193773	0.180712
	N1072	N	0.225267	0.167119	0.209512
	O1073	O	0.181133	0.206975	0.151192
	O1074	O	0.272412	0.137082	0.266641
	C1075	C	0.270873	0.241042	0.196956
	C1076	C	0.316808	0.205797	0.255393
	N1077	N	0.305568	0.229240	0.230002
	O1078	O	0.344573	0.192613	0.285070
	O1079	O	0.254098	0.261748	0.170262
	C1080	C	0.028367	0.134160	0.385272
	C1081	C	0.027987	0.120102	0.385438
	C1082	C	0.014907	0.104926	0.387569
	C1083	C	0.003098	0.103262	0.390289
	C1084	C	0.004202	0.117286	0.390516
	C1085	C	0.016486	0.133010	0.387694
	H1086	H	-0.007146	0.091593	0.391759
	H1087	H	0.016455	0.144296	0.387048
	H1088	H	0.037394	0.121122	0.383680
	C1089	C	0.040736	0.187544	0.360912
	C1090	C	0.031625	0.212920	0.341999
	C1091	C	0.061689	0.214046	0.358554
	C1092	C	0.098135	0.191588	0.391310
	C1093	C	0.107006	0.166310	0.409817
	C1094	C	0.077167	0.164992	0.393713
	H1095	H	0.003461	0.230415	0.316640
	H1096	H	0.135203	0.148863	0.435179
	C1097	C	0.123479	0.199937	0.401837
	C1098	C	0.062415	0.237384	0.347130
	N1099	N	0.100562	0.227258	0.375008
	O1100	O	0.036586	0.260131	0.320453
	O1101	O	0.156533	0.186721	0.427563
	C1102	C	0.016164	0.178894	0.352145
	C1103	C	0.077115	0.141050	0.407054
	N1104	N	0.040065	0.150757	0.381425
	O1105	O	0.102597	0.118078	0.433778
	O1106	O	-0.016985	0.192408	0.326153
	C1107	C	-0.002680	0.084626	0.365392
	C1108	C	-0.015222	0.087394	0.346744
	C1109	C	-0.012660	0.065578	0.357279
	C1110	C	0.002046	0.042414	0.385031
	C1111	C	0.013951	0.039861	0.403223
	C1112	C	0.011128	0.061758	0.392517
	H1113	H	-0.025880	0.105234	0.325789
	H1114	H	0.024414	0.022073	0.424033
	C1115	C	0.003061	0.022369	0.391038
	C1116	C	-0.023262	0.061642	0.343376
	N1117	N	-0.012498	0.035165	0.365191
	O1118	O	-0.037896	0.077261	0.318804
	O1119	O	0.015075	-0.000368	0.413441
	C1120	C	-0.001794	0.104147	0.360648
	C1121	C	0.021115	0.065991	0.405926
	N1122	N	0.012029	0.091948	0.385246
	O1123	O	0.033964	0.051025	0.429226
	O1124	O	-0.011085	0.126079	0.340111
	C1125	C	0.482372	0.119593	0.401469
	C1126	C	0.486077	0.120671	0.412955
	C1127	C	0.455322	0.126851	0.395832
	C1128	C	0.423410	0.131188	0.369535
	C1129	C	0.419593	0.130250	0.357899
	C1130	C	0.450037	0.124536	0.374546
	H1131	H	0.510914	0.117187	0.433493
	H1132	H	0.394594	0.133904	0.337211
	C1133	C	0.396297	0.137009	0.357290
	C1134	C	0.449276	0.130388	0.400651
	N1135	N	0.412994	0.136974	0.376225
	O1136	O	0.470411	0.128411	0.420806
	O1137	O	0.366342	0.140687	0.335996
	C1138	C	0.509290	0.114107	0.413394
	C1139	C	0.454763	0.123018	0.367709
	N1140	N	0.490902	0.116640	0.391944
	O1141	O	0.432993	0.126241	0.346372
	O1142	O	0.540454	0.108553	0.436467
	C1143	C	0.118979	0.266376	0.379347
	C1144	C	0.105424	0.252483	0.375878
	C1145	C	0.115031	0.241274	0.379030
	C1146	C	0.138327	0.243366	0.386180
	C1147	C	0.151934	0.257021	0.390127
	C1148	C	0.142237	0.268800	0.386468
	H1149	H	0.145597	0.234677	0.388579
	H1150	H	0.152688	0.279489	0.389304
	H1151	H	0.087288	0.251005	0.370159
	C1152	C	-0.021785	-0.008864	0.369227
	C1153	C	-0.023183	0.004797	0.368613
	C1154	C	-0.012810	0.021811	0.364368
	C1155	C	-0.001789	0.025538	0.360209
	C1156	C	-0.001241	0.011940	0.360363
	C1157	C	-0.010683	-0.005618	0.365357
	H1158	H	0.006319	0.038621	0.357027
	H1159	H	-0.009627	-0.016436	0.366046
	H1160	H	-0.032195	0.002220	0.371310
	C1161	C	0.384857	0.159021	0.371498
	C1162	C	0.400364	0.155655	0.373942
	C1163	C	0.396205	0.141412	0.372608
	C1164	C	0.376827	0.130730	0.368847
	C1165	C	0.360618	0.135255	0.365260
	C1166	C	0.364376	0.149362	0.366495
	H1167	H	0.374140	0.119265	0.368545
	H1168	H	0.352432	0.152166	0.364538
	H1169	H	0.415552	0.163717	0.377172
	C1170	C	0.122673	0.291085	0.390808
	C1171	C	0.140781	0.291632	0.409663
	C1172	C	0.124478	0.317201	0.388637
	C1173	C	0.091611	0.340489	0.351174
	C1174	C	0.073040	0.339902	0.332182
	C1175	C	0.090098	0.314434	0.353425
	H1176	H	0.166386	0.273586	0.438746
	H1177	H	0.047913	0.358015	0.303224
	C1178	C	0.083439	0.364385	0.337684
	C1179	C	0.138782	0.325440	0.400503
	N1180	N	0.113777	0.353966	0.368868
	O1181	O	0.166272	0.311299	0.430584
	O1182	O	0.057263	0.387894	0.307011
	C1183	C	0.134554	0.267735	0.405221
	C1184	C	0.080398	0.306942	0.342727
	N1185	N	0.109197	0.278956	0.375314
	O1186	O	0.054385	0.321358	0.313016
	O1187	O	0.160484	0.244181	0.435782
	C1188	C	0.188884	0.288465	0.383349
	C1189	C	0.185829	0.310071	0.365073
	C1190	C	0.214119	0.312159	0.384040
	C1191	C	0.243749	0.293710	0.419043
	C1192	C	0.247449	0.271666	0.437734
	C1193	C	0.218894	0.269799	0.418565
	H1194	H	0.162784	0.324553	0.337836
	H1195	H	0.270149	0.257457	0.464724
	C1196	C	0.267345	0.303016	0.430134
	C1197	C	0.217923	0.333808	0.371670
	N1198	N	0.249802	0.327297	0.400289
	O1199	O	0.198314	0.353426	0.343351
	O1200	O	0.295331	0.292700	0.458216
	C1201	C	0.161624	0.281811	0.369925
	C1202	C	0.212423	0.250230	0.429182
	N1203	N	0.176296	0.259865	0.397885
	O1204	O	0.232883	0.230502	0.457989
	O1205	O	0.132747	0.292579	0.341398
	C1206	C	0.019754	0.010833	0.348428
	C1207	C	0.016897	0.008327	0.338351
	C1208	C	0.048313	0.001147	0.356545
	C1209	C	0.080283	-0.003228	0.382920
	C1210	C	0.083000	-0.000506	0.392784
	C1211	C	0.051571	0.006695	0.374576
	H1212	H	-0.007671	0.011397	0.318222
	H1213	H	0.107852	-0.004040	0.413363
	C1214	C	0.108456	-0.010861	0.396937
	C1215	C	0.054785	-0.003227	0.352527
	N1216	N	0.090839	-0.009490	0.376634
	O1217	O	0.034236	-0.002033	0.333183
	O1218	O	0.140032	-0.017120	0.420718
	C1219	C	-0.007547	0.016865	0.335888
	C1220	C	0.045429	0.010301	0.379279
	N1221	N	0.010240	0.015172	0.356482
	O1222	O	0.065339	0.009789	0.397867
	O1223	O	-0.038464	0.022032	0.313154
	C1224	C	0.431574	0.458258	0.360478
	C1225	C	0.401990	0.456406	0.344062
	C1226	C	0.412255	0.430762	0.363598
	C1227	C	0.449460	0.408492	0.397177
	C1228	C	0.479043	0.410401	0.413533
	C1229	C	0.468841	0.436062	0.394039
	H1230	H	0.373123	0.473647	0.318036
	H1231	H	0.507919	0.393126	0.439614
	C1232	C	0.450123	0.384299	0.410425
	C1233	C	0.387944	0.421673	0.354310
	N1234	N	0.412472	0.393654	0.383652
	O1235	O	0.354453	0.434873	0.327842
	O1236	O	0.476529	0.361467	0.437789
	C1237	C	0.430434	0.482536	0.347034
	C1238	C	0.492877	0.445493	0.403097
	N1239	N	0.467948	0.473466	0.373701
	O1240	O	0.526389	0.432658	0.429444
	O1241	O	0.403766	0.505268	0.319604
	C1242	C	0.326435	0.108193	0.374984
	C1243	C	0.329131	0.094552	0.392660
	C1244	C	0.295636	0.107148	0.370015
	C1245	C	0.261522	0.131269	0.332246
	C1246	C	0.258614	0.144599	0.314504
	C1247	C	0.292374	0.132420	0.337236
	H1248	H	0.355668	0.076002	0.421980
	H1249	H	0.232363	0.163568	0.285252
	C1250	C	0.232189	0.139948	0.316748
	C1251	C	0.289379	0.099658	0.380008
	N1252	N	0.251273	0.120714	0.346947
	O1253	O	0.311633	0.080167	0.409721
	O1254	O	0.199197	0.159365	0.285360
	C1255	C	0.357357	0.102333	0.390831
	C1256	C	0.300420	0.143039	0.327704
	N1257	N	0.340256	0.125119	0.361199
	O1258	O	0.278483	0.163164	0.298064
	O1259	O	0.390394	0.082943	0.422143
	C1260	C	0.386241	0.200734	0.367247
	C1261	C	0.376197	0.223447	0.353087
	C1262	C	0.387132	0.218994	0.371953
	C1263	C	0.408253	0.193326	0.403780
	C1264	C	0.417974	0.170740	0.417752
	C1265	C	0.405758	0.175465	0.398099
	H1266	H	0.360116	0.243296	0.328588
	H1267	H	0.432628	0.151127	0.441318
	C1268	C	0.414194	0.195546	0.416499
	C1269	C	0.377180	0.238799	0.362299
	N1270	N	0.391953	0.223382	0.388771
	O1271	O	0.359476	0.262898	0.337086
	O1272	O	0.432495	0.177865	0.443758
	C1273	C	0.377488	0.197906	0.353354
	C1274	C	0.408523	0.156146	0.404025
	N1275	N	0.391485	0.170670	0.376661
	O1276	O	0.420936	0.133045	0.426319
	O1277	O	0.361568	0.214789	0.327698
	C1278	C	0.155487	0.390279	0.374710
	C1279	C	0.145148	0.401615	0.370935
	C1280	C	0.123642	0.397180	0.366019
	C1281	C	0.112947	0.381429	0.365351
	C1282	C	0.124290	0.370011	0.369799
	C1283	C	0.145364	0.374338	0.374330
	H1284	H	0.096508	0.378125	0.361661
	H1285	H	0.153493	0.365646	0.377270
	H1286	H	0.153124	0.413929	0.371218
	C1287	C	0.263279	0.374880	0.392375
	C1288	C	0.274580	0.382417	0.387220
	C1289	C	0.277808	0.371007	0.386835
	C1290	C	0.270401	0.352381	0.391809
	C1291	C	0.258969	0.345484	0.396606
	C1292	C	0.255101	0.356636	0.396780
	H1293	H	0.273067	0.343605	0.391592
	H1294	H	0.245925	0.351205	0.400270
	H1295	H	0.280417	0.396742	0.383456
	C1296	C	0.114761	-0.020818	0.371997
	C1297	C	0.102047	-0.022142	0.373859
	C1298	C	0.104122	-0.008829	0.375200
	C1299	C	0.118001	0.005957	0.374096
	C1300	C	0.130648	0.006862	0.372383
	C1301	C	0.129400	-0.006529	0.371517
	H1302	H	0.118733	0.016752	0.374260
	H1303	H	0.139541	-0.005781	0.370442
	H1304	H	0.090497	-0.033038	0.373869
	C1305	C	0.391645	0.345364	0.393292
	C1306	C	0.404043	0.361075	0.390627
	C1307	C	0.401037	0.376722	0.387407
	C1308	C	0.386444	0.376625	0.387281
	C1309	C	0.374407	0.360707	0.390115
	C1310	C	0.376548	0.345127	0.392864
	H1311	H	0.384504	0.388649	0.385041
	H1312	H	0.366991	0.333011	0.394909
	H1313	H	0.415539	0.361284	0.390835
	C1314	C	0.223983	0.148443	0.338830
	C1315	C	0.212112	0.134194	0.343638
	C1316	C	0.213058	0.115458	0.349224
	C1317	C	0.225271	0.111004	0.349793
	C1318	C	0.237205	0.125393	0.345186
	C1319	C	0.236815	0.144088	0.339797
	H1320	H	0.226483	0.096230	0.354673
	H1321	H	0.246148	0.155060	0.336277
	H1322	H	0.202952	0.137418	0.343491
	C1323	C	0.331553	0.234949	0.365463
	C1324	C	0.341663	0.245877	0.372210
	C1325	C	0.367458	0.250795	0.382725
	C1326	C	0.384106	0.244172	0.387715
	C1327	C	0.373982	0.232746	0.381477
	C1328	C	0.347452	0.228341	0.369935
	H1329	H	0.404276	0.247731	0.396201
	H1330	H	0.339804	0.219574	0.365083
	H1331	H	0.331179	0.249341	0.370973
	C1332	C	0.222330	0.383968	0.402009
	C1333	C	0.255147	0.370155	0.424622
	C1334	C	0.250927	0.380967	0.406790
	C1335	C	0.216840	0.404635	0.369064
	C1336	C	0.184267	0.418663	0.346555
	C1337	C	0.187950	0.407294	0.364217
	H1338	H	0.281701	0.351857	0.453927
	H1339	H	0.157586	0.436515	0.317335
	C1340	C	0.221795	0.409287	0.359247
	C1341	C	0.278197	0.369084	0.422226
	N1342	N	0.257990	0.385975	0.392133
	O1343	O	0.310313	0.348498	0.453692
	O1344	O	0.200032	0.428157	0.329888
	C1345	C	0.215563	0.376489	0.411624
	C1346	C	0.157859	0.415305	0.348303
	N1347	N	0.175993	0.395265	0.378150
	O1348	O	0.124598	0.434317	0.316745
	O1349	O	0.238044	0.358171	0.441215
	C1350	C	0.099608	0.460560	0.349735
	C1351	C	0.090427	0.463883	0.332544
	C1352	C	0.098700	0.441161	0.346105
	C1353	C	0.114914	0.416725	0.374830
	C1354	C	0.123794	0.413573	0.391804
	C1355	C	0.115953	0.436253	0.378552
	H1356	H	0.078645	0.482641	0.310855
	H1357	H	0.136574	0.394641	0.414199
	C1358	C	0.121728	0.396472	0.383357
	C1359	C	0.094724	0.437506	0.335418
	N1360	N	0.111744	0.409941	0.360543
	O1361	O	0.080755	0.454061	0.310995
	O1362	O	0.132762	0.373628	0.404394
	C1363	C	0.095488	0.480601	0.342468
	C1364	C	0.123331	0.439955	0.391103
	N1365	N	0.111174	0.466858	0.368740
	O1366	O	0.136509	0.423931	0.414892
	O1367	O	0.081762	0.503926	0.319147
	C1368	C	0.318211	0.372700	0.370355
	C1369	C	0.286515	0.382690	0.350797
	C1370	C	0.293486	0.379616	0.366645
	C1371	C	0.329715	0.367151	0.399944
	C1372	C	0.361401	0.357204	0.419490
	C1373	C	0.354345	0.360477	0.403494
	H1374	H	0.258515	0.391991	0.325239
	H1375	H	0.389537	0.347509	0.445342
	C1376	C	0.327348	0.366069	0.409738
	C1377	C	0.266587	0.387220	0.353801
	N1378	N	0.289039	0.377597	0.381569
	O1379	O	0.232720	0.398952	0.325886
	O1380	O	0.352282	0.357504	0.435847
	C1381	C	0.321232	0.372707	0.361533
	C1382	C	0.381591	0.352537	0.416828
	N1383	N	0.359843	0.360698	0.390274
	O1384	O	0.415149	0.341818	0.444077
	O1385	O	0.296698	0.380913	0.335786
	C1386	C	0.181806	0.036240	0.383573
	C1387	C	0.211884	0.037214	0.399931
	C1388	C	0.201939	0.063027	0.378485
	C1389	C	0.164607	0.086306	0.343269
	C1390	C	0.134555	0.085319	0.326962
	C1391	C	0.144408	0.059525	0.348227
	H1392	H	0.240892	0.019198	0.427272
	H1393	H	0.105576	0.103328	0.299644
	C1394	C	0.164195	0.110342	0.328086
	C1395	C	0.226593	0.071318	0.386841
	N1396	N	0.201988	0.099857	0.355133
	O1397	O	0.260342	0.057153	0.414308
	O1398	O	0.137834	0.133919	0.299144
	C1399	C	0.182037	0.012199	0.398289
	C1400	C	0.119393	0.051242	0.339000
	N1401	N	0.143704	0.022751	0.370065
	O1402	O	0.085432	0.065350	0.311123
	O1403	O	0.208629	-0.011372	0.427654
	C1404	C	0.398982	0.295729	0.409727
	C1405	C	0.404620	0.272238	0.423754
	C1406	C	0.392830	0.272729	0.406940
	C1407	C	0.376554	0.295175	0.378089
	C1408	C	0.371350	0.318498	0.364400
	C1409	C	0.383028	0.318035	0.381121
	H1410	H	0.416767	0.254974	0.445794
	H1411	H	0.358686	0.336001	0.342032
	C1412	C	0.365949	0.289281	0.365687
	C1413	C	0.393603	0.251537	0.414282
	N1414	N	0.376796	0.262920	0.388396
	O1415	O	0.405831	0.229196	0.437207
	O1416	O	0.351254	0.303391	0.341569
	C1417	C	0.406465	0.302689	0.419857
	C1418	C	0.379576	0.340053	0.371823
	N1419	N	0.393797	0.329601	0.395840
	O1420	O	0.367519	0.362274	0.348938
	O1421	O	0.420183	0.288769	0.443333
	C1422	C	0.260596	0.222471	0.327761
	C1423	C	0.231237	0.223340	0.305080
	C1424	C	0.231999	0.201192	0.320216
	C1425	C	0.259456	0.180107	0.355117
	C1426	C	0.287792	0.179834	0.377146
	C1427	C	0.287979	0.201438	0.362640
	H1428	H	0.210233	0.239491	0.278175
	H1429	H	0.308769	0.163417	0.404082
	C1430	C	0.254658	0.158337	0.364336
	C1431	C	0.208275	0.193809	0.305670
	N1432	N	0.225229	0.167152	0.334471
	O1433	O	0.181080	0.207018	0.276143
	O1434	O	0.272393	0.137103	0.391613
	C1435	C	0.270847	0.241068	0.321924
	C1436	C	0.316797	0.205814	0.380370
	N1437	N	0.305548	0.229263	0.354974
	O1438	O	0.344571	0.192625	0.410053
	O1439	O	0.254066	0.261777	0.295226
	C1440	C	0.028315	0.134205	0.510208
	C1441	C	0.027937	0.120145	0.510376
	C1442	C	0.014863	0.104965	0.512515
	C1443	C	0.003056	0.103301	0.515236
	C1444	C	0.004160	0.117328	0.515461
	C1445	C	0.016439	0.133054	0.512635
	H1446	H	-0.007184	0.091630	0.516711
	H1447	H	0.016408	0.144341	0.511987
	H1448	H	0.037342	0.121165	0.508617
	C1449	C	0.040662	0.187599	0.485821
	C1450	C	0.031540	0.212980	0.466895
	C1451	C	0.061599	0.214111	0.483444
	C1452	C	0.098050	0.191654	0.516206
	C1453	C	0.106932	0.166372	0.534726
	C1454	C	0.077098	0.165048	0.518628
	H1455	H	0.003371	0.230475	0.441530
	H1456	H	0.135134	0.148925	0.560093
	C1457	C	0.123386	0.200010	0.526724
	C1458	C	0.062313	0.237457	0.472005
	N1459	N	0.100458	0.227335	0.499880
	O1460	O	0.036476	0.260205	0.445318
	O1461	O	0.156443	0.186795	0.552452
	C1462	C	0.016097	0.178945	0.477063
	C1463	C	0.077056	0.141102	0.531981
	N1464	N	0.040007	0.150806	0.506354
	O1465	O	0.102545	0.118128	0.558712
	O1466	O	-0.017054	0.192456	0.451070
	C1467	C	-0.002717	0.084653	0.490351
	C1468	C	-0.015259	0.087417	0.471705
	C1469	C	-0.012687	0.065596	0.482250
	C1470	C	0.002027	0.042433	0.510007
	C1471	C	0.013930	0.039884	0.528196
	C1472	C	0.011098	0.061785	0.517481
	H1473	H	-0.025924	0.105257	0.450745
	H1474	H	0.024400	0.022095	0.549011
	C1475	C	0.003052	0.022382	0.516024
	C1476	C	-0.023289	0.061656	0.468350
	N1477	N	-0.012506	0.035174	0.490180
	O1478	O	-0.037909	0.077269	0.443788
	O1479	O	0.015073	-0.000356	0.538433
	C1480	C	-0.001836	0.104178	0.485600
	C1481	C	0.021082	0.066023	0.530885
	N1482	N	0.011989	0.091983	0.510198
	O1483	O	0.033934	0.051058	0.554186
	O1484	O	-0.011131	0.126111	0.465059
	C1485	C	0.482359	0.119610	0.526447
	C1486	C	0.486083	0.120669	0.537956
	C1487	C	0.455331	0.126847	0.520837
	C1488	C	0.423405	0.131203	0.494522
	C1489	C	0.419570	0.130284	0.482864
	C1490	C	0.450011	0.124570	0.499508
	H1491	H	0.510930	0.117170	0.558508
	H1492	H	0.394560	0.133952	0.462163
	C1493	C	0.396299	0.137021	0.482286
	C1494	C	0.449306	0.130364	0.525682
	N1495	N	0.413016	0.136966	0.501244
	O1496	O	0.470448	0.128382	0.545843
	O1497	O	0.366336	0.140711	0.460980
	C1498	C	0.509268	0.114129	0.538363
	C1499	C	0.454722	0.123066	0.492654
	N1500	N	0.490865	0.116679	0.516894
	O1501	O	0.432940	0.126303	0.471302
	O1502	O	0.540438	0.108567	0.561442
	C1503	C	0.118851	0.266470	0.504192
	C1504	C	0.105302	0.252574	0.500729
	C1505	C	0.114916	0.241360	0.503890
	C1506	C	0.138213	0.243450	0.511041
	C1507	C	0.151814	0.257110	0.514981
	C1508	C	0.142110	0.268894	0.511314
	H1509	H	0.145492	0.234756	0.513449
	H1510	H	0.152558	0.279585	0.514146
	H1511	H	0.087166	0.251095	0.495009
	C1512	C	-0.021776	-0.008865	0.494234
	C1513	C	-0.023179	0.004799	0.493613
	C1514	C	-0.012810	0.021815	0.489364
	C1515	C	-0.001785	0.025540	0.485209
	C1516	C	-0.001231	0.011938	0.485370
	C1517	C	-0.010669	-0.005622	0.490368
	H1518	H	0.006321	0.038624	0.482026
	H1519	H	-0.009610	-0.016443	0.491060
	H1520	H	-0.032194	0.002224	0.496308
	C1521	C	0.384909	0.158984	0.496555
	C1522	C	0.400404	0.155628	0.498984
	C1523	C	0.396242	0.141391	0.497645
	C1524	C	0.376874	0.130701	0.493894
	C1525	C	0.360678	0.135213	0.490323
	C1526	C	0.364437	0.149317	0.491562
	H1527	H	0.374185	0.119239	0.493588
	H1528	H	0.352502	0.152112	0.489617
	H1529	H	0.415584	0.163696	0.502207
	C1530	C	0.122559	0.291161	0.515674
	C1531	C	0.140672	0.291696	0.534540
	C1532	C	0.124384	0.317261	0.513528
	C1533	C	0.091526	0.340557	0.476067
	C1534	C	0.072950	0.339982	0.457063
	C1535	C	0.089993	0.314518	0.478292
	H1536	H	0.166271	0.273645	0.563623
	H1537	H	0.047830	0.358101	0.428107
	C1538	C	0.083371	0.364444	0.462595
	C1539	C	0.138699	0.325486	0.525410
	N1540	N	0.113709	0.354013	0.493787
	O1541	O	0.166185	0.311336	0.555495
	O1542	O	0.057207	0.387957	0.431928
	C1543	C	0.134426	0.267818	0.530073
	C1544	C	0.080286	0.307037	0.467583
	N1545	N	0.109071	0.279049	0.500161
	O1546	O	0.054278	0.321461	0.437869
	O1547	O	0.160346	0.244261	0.560628
	C1548	C	0.188804	0.288534	0.508245
	C1549	C	0.185769	0.310133	0.489985
	C1550	C	0.214070	0.312209	0.508967
	C1551	C	0.243691	0.293754	0.543969
	C1552	C	0.247371	0.271716	0.562645
	C1553	C	0.218807	0.269861	0.543460
	H1554	H	0.162731	0.324620	0.462749
	H1555	H	0.270065	0.257503	0.589633
	C1556	C	0.267300	0.303047	0.555078
	C1557	C	0.217896	0.333847	0.496619
	N1558	N	0.249774	0.327327	0.525245
	O1559	O	0.198303	0.353465	0.468309
	O1560	O	0.295283	0.292724	0.583164
	C1561	C	0.161529	0.281893	0.494801
	C1562	C	0.212317	0.250300	0.554058
	N1563	N	0.176187	0.259948	0.522751
	O1564	O	0.232766	0.230571	0.582860
	O1565	O	0.132651	0.292672	0.466267
	C1566	C	0.019771	0.010819	0.473447
	C1567	C	0.016919	0.008306	0.463376
	C1568	C	0.048336	0.001123	0.481574
	C1569	C	0.080305	-0.003248	0.507945
	C1570	C	0.083017	-0.000520	0.517802
	C1571	C	0.051587	0.006684	0.499591
	H1572	H	-0.007648	0.011373	0.443251
	H1573	H	0.107868	-0.004052	0.538379
	C1574	C	0.108479	-0.010884	0.521965
	C1575	C	0.054814	-0.003260	0.477564
	N1576	N	0.090862	-0.009515	0.501664
	O1577	O	0.034259	-0.002058	0.458212
	O1578	O	0.140055	-0.017144	0.545745
	C1579	C	-0.007533	0.016856	0.460902
	C1580	C	0.045440	0.010297	0.504288
	N1581	N	0.010252	0.015167	0.481491
	O1582	O	0.065347	0.009790	0.522871
	O1583	O	-0.038449	0.022021	0.438169
	C1584	C	0.431585	0.458255	0.485486
	C1585	C	0.402001	0.456403	0.469068
	C1586	C	0.412267	0.430759	0.488604
	C1587	C	0.449472	0.408489	0.522185
	C1588	C	0.479056	0.410398	0.538542
	C1589	C	0.468854	0.436058	0.519048
	H1590	H	0.373133	0.473644	0.443040
	H1591	H	0.507932	0.393123	0.564624
	C1592	C	0.450135	0.384296	0.535433
	C1593	C	0.387956	0.421669	0.479316
	N1594	N	0.412482	0.393651	0.508655
	O1595	O	0.354460	0.434873	0.452837
	O1596	O	0.476542	0.361463	0.562798
	C1597	C	0.430444	0.482533	0.472042
	C1598	C	0.492889	0.445490	0.528107
	N1599	N	0.467959	0.473463	0.498710
	O1600	O	0.526402	0.432655	0.554455
	O1601	O	0.403776	0.505265	0.444610
	C1602	C	0.326510	0.108141	0.500063
	C1603	C	0.329209	0.094503	0.517740
	C1604	C	0.295712	0.107095	0.495095
	C1605	C	0.261594	0.131209	0.457324
	C1606	C	0.258683	0.144537	0.439581
	C1607	C	0.292445	0.132362	0.462314
	H1608	H	0.355749	0.075958	0.547060
	H1609	H	0.232428	0.163501	0.410329
	C1610	C	0.232258	0.139886	0.441824
	C1611	C	0.289454	0.099606	0.505087
	N1612	N	0.251345	0.120659	0.472024
	O1613	O	0.311718	0.080129	0.534802
	O1614	O	0.199261	0.159296	0.410436
	C1615	C	0.357431	0.102286	0.515907
	C1616	C	0.300488	0.142983	0.452779
	N1617	N	0.340325	0.125070	0.486271
	O1618	O	0.278547	0.163105	0.423137
	O1619	O	0.390471	0.082900	0.547220
	C1620	C	0.386298	0.200692	0.492312
	C1621	C	0.376257	0.223404	0.478154
	C1622	C	0.387186	0.218951	0.497017
	C1623	C	0.408298	0.193284	0.528839
	C1624	C	0.418017	0.170698	0.542808
	C1625	C	0.405808	0.175424	0.523159
	H1626	H	0.360182	0.243253	0.453658
	H1627	H	0.432664	0.151086	0.566369
	C1628	C	0.414233	0.195504	0.541553
	C1629	C	0.377234	0.238756	0.487363
	N1630	N	0.391997	0.223340	0.513828
	O1631	O	0.359537	0.262854	0.462154
	O1632	O	0.432524	0.177823	0.568807
	C1633	C	0.377548	0.197865	0.478419
	C1634	C	0.408571	0.156107	0.529082
	N1635	N	0.391538	0.170631	0.501721
	O1636	O	0.420979	0.133006	0.551372
	O1637	O	0.361635	0.214747	0.452768
	C1638	C	0.155462	0.390295	0.499680
	C1639	C	0.145136	0.401622	0.495919
	C1640	C	0.123624	0.397190	0.490997
	C1641	C	0.112911	0.381452	0.490308
	C1642	C	0.124241	0.370044	0.494741
	C1643	C	0.145321	0.374367	0.499279
	H1644	H	0.096466	0.378152	0.486612
	H1645	H	0.153442	0.365681	0.502209
	H1646	H	0.153127	0.413926	0.496219
	C1647	C	0.263270	0.374895	0.517358
	C1648	C	0.274579	0.382430	0.512210
	C1649	C	0.277808	0.371024	0.511821
	C1650	C	0.270394	0.352402	0.516787
	C1651	C	0.258952	0.345508	0.521576
	C1652	C	0.255083	0.356656	0.521751
	H1653	H	0.273060	0.343629	0.516568
	H1654	H	0.245901	0.351227	0.525234
	H1655	H	0.280421	0.396753	0.508452
	C1656	C	0.114776	-0.020837	0.497017
	C1657	C	0.102064	-0.022163	0.498881
	C1658	C	0.104144	-0.008853	0.500227
	C1659	C	0.118026	0.005931	0.499126
	C1660	C	0.130671	0.006837	0.497412
	C1661	C	0.129417	-0.006549	0.496540
	H1662	H	0.118762	0.016724	0.499294
	H1663	H	0.139557	-0.005801	0.495463
	H1664	H	0.090514	-0.033058	0.498890
	C1665	C	0.391657	0.345359	0.518300
	C1666	C	0.404055	0.361070	0.515635
	C1667	C	0.401047	0.376720	0.512412
	C1668	C	0.386454	0.376625	0.512283
	C1669	C	0.374417	0.360706	0.515119
	C1670	C	0.376559	0.345124	0.517870
	H1671	H	0.384511	0.388651	0.510040
	H1672	H	0.367003	0.333008	0.519917
	H1673	H	0.415552	0.361277	0.515844
	C1674	C	0.224031	0.148403	0.463881
	C1675	C	0.212162	0.134153	0.468691
	C1676	C	0.213115	0.115414	0.474285
	C1677	C	0.225336	0.110955	0.474862
	C1678	C	0.237270	0.125343	0.470255
	C1679	C	0.236870	0.144043	0.464856
	H1680	H	0.226553	0.096177	0.479748
	H1681	H	0.246202	0.155017	0.461334
	H1682	H	0.202995	0.137383	0.468537
	C1683	C	0.331578	0.234922	0.490498
	C1684	C	0.341685	0.245852	0.497241
	C1685	C	0.367484	0.250768	0.507761
	C1686	C	0.384139	0.244138	0.512760
	C1687	C	0.374020	0.232708	0.506527
	C1688	C	0.347486	0.228307	0.494980
	H1689	H	0.404312	0.247695	0.521250
	H1690	H	0.339840	0.219538	0.490130
	H1691	H	0.331196	0.249320	0.495998
	C1692	C	0.222315	0.383977	0.526990
	C1693	C	0.255131	0.370161	0.549605
	C1694	C	0.250915	0.380974	0.531775
	C1695	C	0.216832	0.404647	0.494048
	C1696	C	0.184259	0.418678	0.471539
	C1697	C	0.187939	0.407308	0.489198
	H1698	H	0.281682	0.351859	0.578909
	H1699	H	0.157581	0.436534	0.442318
	C1700	C	0.221788	0.409299	0.484232
	C1701	C	0.278184	0.369089	0.547210
	N1702	N	0.257982	0.385986	0.517119
	O1703	O	0.310303	0.348508	0.578677
	O1704	O	0.200027	0.428170	0.454874
	C1705	C	0.215544	0.376497	0.536603
	C1706	C	0.157847	0.415322	0.473282
	N1707	N	0.175976	0.395279	0.503127
	O1708	O	0.124587	0.434338	0.441724
	O1709	O	0.238022	0.358175	0.566193
	C1710	C	0.099614	0.460550	0.474744
	C1711	C	0.090428	0.463878	0.457547
	C1712	C	0.098701	0.441158	0.471105
	C1713	C	0.114923	0.416718	0.499836
	C1714	C	0.123808	0.413562	0.516815
	C1715	C	0.115964	0.436241	0.503564
	H1716	H	0.078641	0.482639	0.435855
	H1717	H	0.136593	0.394627	0.539213
	C1718	C	0.121737	0.396468	0.508360
	C1719	C	0.094722	0.437508	0.460413
	N1720	N	0.111737	0.409943	0.485534
	O1721	O	0.080729	0.454069	0.435974
	O1722	O	0.132782	0.373621	0.529404
	C1723	C	0.095495	0.480589	0.467479
	C1724	C	0.123345	0.439939	0.516119
	N1725	N	0.111184	0.466843	0.493755
	O1726	O	0.136525	0.423912	0.539910
	O1727	O	0.081766	0.503915	0.444157
	C1728	C	0.318218	0.372711	0.495351
	C1729	C	0.286521	0.382705	0.475789
	C1730	C	0.293491	0.379633	0.491637
	C1731	C	0.329721	0.367163	0.524939
	C1732	C	0.361409	0.357211	0.544488
	C1733	C	0.354353	0.360484	0.528492
	H1734	H	0.258521	0.392008	0.450230
	H1735	H	0.389546	0.347513	0.570342
	C1736	C	0.327353	0.366082	0.534732
	C1737	C	0.266591	0.387241	0.478789
	N1738	N	0.289042	0.377615	0.506559
	O1739	O	0.232722	0.398978	0.450870
	O1740	O	0.352288	0.357515	0.560842
	C1741	C	0.321240	0.372715	0.486531
	C1742	C	0.381600	0.352540	0.541830
	N1743	N	0.359852	0.360701	0.515276
	O1744	O	0.415158	0.341818	0.569080
	O1745	O	0.296706	0.380921	0.460783
	C1746	C	0.181842	0.036206	0.508614
	C1747	C	0.211923	0.037176	0.524975
	C1748	C	0.201984	0.062987	0.503535
	C1749	C	0.164656	0.086268	0.468323
	C1750	C	0.134600	0.085285	0.452013
	C1751	C	0.144448	0.059493	0.473272
	H1752	H	0.240929	0.019158	0.552313
	H1753	H	0.105624	0.103296	0.424697
	C1754	C	0.164250	0.110302	0.453146
	C1755	C	0.226642	0.071274	0.511895
	N1756	N	0.202042	0.099814	0.480192
	O1757	O	0.260390	0.057107	0.539361
	O1758	O	0.137894	0.133879	0.424209
	C1759	C	0.182066	0.012168	0.523324
	C1760	C	0.119428	0.051214	0.464040
	N1761	N	0.143733	0.022723	0.495100
	O1762	O	0.085467	0.065325	0.436163
	O1763	O	0.208654	-0.011404	0.552684
	C1764	C	0.398998	0.295717	0.534745
	C1765	C	0.404641	0.272223	0.548777
	C1766	C	0.392849	0.272712	0.531965
	C1767	C	0.376568	0.295157	0.503110
	C1768	C	0.371358	0.318483	0.489415
	C1769	C	0.383039	0.318022	0.506135
	H1770	H	0.416793	0.254960	0.570821
	H1771	H	0.358689	0.335985	0.467043
	C1772	C	0.365963	0.289259	0.490710
	C1773	C	0.393626	0.251516	0.539312
	N1774	N	0.376817	0.262897	0.513425
	O1775	O	0.405859	0.229174	0.562240
	O1776	O	0.351262	0.303369	0.466589
	C1777	C	0.406484	0.302680	0.544874
	C1778	C	0.379584	0.340043	0.496833
	N1779	N	0.393811	0.329593	0.520853
	O1780	O	0.367522	0.362264	0.473944
	O1781	O	0.420205	0.288761	0.568351
	C1782	C	0.260620	0.222446	0.452791
	C1783	C	0.231269	0.223310	0.430114
	C1784	C	0.232030	0.201162	0.445250
	C1785	C	0.259478	0.180083	0.480145
	C1786	C	0.287803	0.179816	0.502168
	C1787	C	0.287994	0.201419	0.487664
	H1788	H	0.210273	0.239457	0.403214
	H1789	H	0.308772	0.163404	0.529099
	C1790	C	0.254683	0.158312	0.489367
	C1791	C	0.208317	0.193773	0.430712
	N1792	N	0.225267	0.167119	0.459512
	O1793	O	0.181133	0.206975	0.401192
	O1794	O	0.272412	0.137082	0.516641
	C1795	C	0.270873	0.241042	0.446956
	C1796	C	0.316808	0.205797	0.505393
	N1797	N	0.305568	0.229240	0.480002
	O1798	O	0.344573	0.192613	0.535070
	O1799	O	0.254098	0.261748	0.420262
	C1800	C	0.028367	0.134160	0.635272
	C1801	C	0.027987	0.120102	0.635438
	C1802	C	0.014907	0.104926	0.637569
	C1803	C	0.003098	0.103262	0.640289
	C1804	C	0.004202	0.117286	0.640516
	C1805	C	0.016486	0.133010	0.637694
	H1806	H	-0.007146	0.091593	0.641759
	H1807	H	0.016455	0.144296	0.637048
	H1808	H	0.037394	0.121122	0.633680
	C1809	C	0.040736	0.187544	0.610912
	C1810	C	0.031625	0.212920	0.591999
	C1811	C	0.061689	0.214046	0.608554
	C1812	C	0.098135	0.191588	0.641310
	C1813	C	0.107006	0.166310	0.659817
	C1814	C	0.077167	0.164992	0.643713
	H1815	H	0.003461	0.230415	0.566640
	H1816	H	0.135203	0.148863	0.685179
	C1817	C	0.123479	0.199937	0.651837
	C1818	C	0.062415	0.237384	0.597130
	N1819	N	0.100562	0.227258	0.625008
	O1820	O	0.036586	0.260131	0.570453
	O1821	O	0.156533	0.186721	0.677563
	C1822	C	0.016164	0.178894	0.602145
	C1823	C	0.077115	0.141050	0.657054
	N1824	N	0.040065	0.150757	0.631425
	O1825	O	0.102597	0.118078	0.683778
	O1826	O	-0.016985	0.192408	0.576153
	C1827	C	-0.002680	0.084626	0.615392
	C1828	C	-0.015222	0.087394	0.596744
	C1829	C	-0.012660	0.065578	0.607279
	C1830	C	0.002046	0.042414	0.635031
	C1831	C	0.013951	0.039861	0.653223
	C1832	C	0.011128	0.061758	0.642517
	H1833	H	-0.025880	0.105234	0.575789
	H1834	H	0.024414	0.022073	0.674033
	C1835	C	0.003061	0.022369	0.641038
	C1836	C	-0.023262	0.061642	0.593376
	N1837	N	-0.012498	0.035165	0.615191
	O1838	O	-0.037896	0.077261	0.568804
	O1839	O	0.015075	-0.000368	0.663441
	C1840	C	-0.001794	0.104147	0.610648
	C1841	C	0.021115	0.065991	0.655926
	N1842	N	0.012029	0.091948	0.635246
	O1843	O	0.033964	0.051025	0.679226
	O1844	O	-0.011085	0.126079	0.590111
	C1845	C	0.482372	0.119593	0.651469
	C1846	C	0.486077	0.120671	0.662955
	C1847	C	0.455322	0.126851	0.645832
	C1848	C	0.423410	0.131188	0.619535
	C1849	C	0.419593	0.130250	0.607899
	C1850	C	0.450037	0.124536	0.624546
	H1851	H	0.510914	0.117187	0.683493
	H1852	H	0.394594	0.133904	0.587211
	C1853	C	0.396297	0.137009	0.607290
	C1854	C	0.449276	0.130388	0.650651
	N1855	N	0.412994	0.136974	0.626225
	O1856	O	0.470411	0.128411	0.670806
	O1857	O	0.366342	0.140687	0.585996
	C1858	C	0.509290	0.114107	0.663394
	C1859	C	0.454763	0.123018	0.617709
	N1860	N	0.490902	0.116640	0.641944
	O1861	O	0.432993	0.126241	0.596372
	O1862	O	0.540454	0.108553	0.686467
	C1863	C	0.118979	0.266376	0.629347
	C1864	C	0.105424	0.252483	0.625878
	C1865	C	0.115031	0.241274	0.629030
	C1866	C	0.138327	0.243366	0.636180
	C1867	C	0.151934	0.257021	0.640127
	C1868	C	0.142237	0.268800	0.636468
	H1869	H	0.145597	0.234677	0.638579
	H1870	H	0.152688	0.279489	0.639304
	H1871	H	0.087288	0.251005	0.620159
	C1872	C	-0.021785	-0.008864	0.619227
	C1873	C	-0.023183	0.004797	0.618613
	C1874	C	-0.012810	0.021811	0.614368
	C1875	C	-0.001789	0.025538	0.610209
	C1876	C	-0.001241	0.011940	0.610363
	C1877	C	-0.010683	-0.005618	0.615357
	H1878	H	0.006319	0.038621	0.607027
	H1879	H	-0.009627	-0.016436	0.616046
	H1880	H	-0.032195	0.002220	0.621310
	C1881	C	0.384857	0.159021	0.621498
	C1882	C	0.400364	0.155655	0.623942
	C1883	C	0.396205	0.141412	0.622608
	C1884	C	0.376827	0.130730	0.618847
	C1885	C	0.360618	0.135255	0.615260
	C1886	C	0.364376	0.149362	0.616495
	H1887	H	0.374140	0.119265	0.618545
	H1888	H	0.352432	0.152166	0.614538
	H1889	H	0.415552	0.163717	0.627172
	C1890	C	0.122673	0.291085	0.640808
	C1891	C	0.140781	0.291632	0.659663
	C1892	C	0.124478	0.317201	0.638637
	C1893	C	0.091611	0.340489	0.601174
	C1894	C	0.073040	0.339902	0.582182
	C1895	C	0.090098	0.314434	0.603425
	H1896	H	0.166386	0.273586	0.688746
	H1897	H	0.047913	0.358015	0.553224
	C1898	C	0.083439	0.364385	0.587684
	C1899	C	0.138782	0.325440	0.650503
	N1900	N	0.113777	0.353966	0.618868
	O1901	O	0.166272	0.311299	0.680584
	O1902	O	0.057263	0.387894	0.557011
	C1903	C	0.134554	0.267735	0.655221
	C1904	C	0.080398	0.306942	0.592727
	N1905	N	0.109197	0.278956	0.625314
	O1906	O	0.054385	0.321358	0.563016
	O1907	O	0.160484	0.244181	0.685782
	C1908	C	0.188884	0.288465	0.633349
	C1909	C	0.185829	0.310071	0.615073
	C1910	C	0.214119	0.312159	0.634040
	C1911	C	0.243749	0.293710	0.669043
	C1912	C	0.247449	0.271666	0.687734
	C1913	C	0.218894	0.269799	0.668565
	H1914	H	0.162784	0.324553	0.587836
	H1915	H	0.270149	0.257457	0.714724
	C1916	C	0.267345	0.303016	0.680134
	C1917	C	0.217923	0.333808	0.621670
	N1918	N	0.249802	0.327297	0.650289
	O1919	O	0.198314	0.353426	0.593351
	O1920	O	0.295331	0.292700	0.708216
	C1921	C	0.161624	0.281811	0.619925
	C1922	C	0.212423	0.250230	0.679182
	N1923	N	0.176296	0.259865	0.647885
	O1924	O	0.232883	0.230502	0.707989
	O1925	O	0.132747	0.292579	0.591398
	C1926	C	0.019754	0.010833	0.598428
	C1927	C	0.016897	0.008327	0.588351
	C1928	C	0.048313	0.001147	0.606545
	C1929	C	0.080283	-0.003228	0.632920
	C1930	C	0.083000	-0.000506	0.642784
	C1931	C	0.051571	0.006695	0.624576
	H1932	H	-0.007671	0.011397	0.568222
	H1933	H	0.107852	-0.004040	0.663363
	C1934	C	0.108456	-0.010861	0.646937
	C1935	C	0.054785	-0.003227	0.602527
	N1936	N	0.090839	-0.009490	0.626634
	O1937	O	0.034236	-0.002033	0.583183
	O1938	O	0.140032	-0.017120	0.670718
	C1939	C	-0.007547	0.016865	0.585888
	C1940	C	0.045429	0.010301	0.629279
	N1941	N	0.010240	0.015172	0.606482
	O1942	O	0.065339	0.009789	0.647867
	O1943	O	-0.038464	0.022032	0.563154
	C1944	C	0.431574	0.458258	0.610478
	C1945	C	0.401990	0.456406	0.594062
	C1946	C	0.412255	0.430762	0.613598
	C1947	C	0.449460	0.408492	0.647177
	C1948	C	0.479043	0.410401	0.663533
	C1949	C	0.468841	0.436062	0.644039
	H1950	H	0.373123	0.473647	0.568036
	H1951	H	0.507919	0.393126	0.689614
	C1952	C	0.450123	0.384299	0.660425
	C1953	C	0.387944	0.421673	0.604310
	N1954	N	0.412472	0.393654	0.633652
	O1955	O	0.354453	0.434873	0.577842
	O1956	O	0.476529	0.361467	0.687789
	C1957	C	0.430434	0.482536	0.597034
	C1958	C	0.492877	0.445493	0.653097
	N1959	N	0.467948	0.473466	0.623701
	O1960	O	0.526389	0.432658	0.679444
	O1961	O	0.403766	0.505268	0.569604
	C1962	C	0.326435	0.108193	0.624984
	C1963	C	0.329131	0.094552	0.642660
	C1964	C	0.295636	0.107148	0.620015
	C1965	C	0.261522	0.131269	0.582246
	C1966	C	0.258614	0.144599	0.564504
	C1967	C	0.292374	0.132420	0.587236
	H1968	H	0.355668	0.076002	0.671980
	H1969	H	0.232363	0.163568	0.535252
	C1970	C	0.232189	0.139948	0.566748
	C1971	C	0.289379	0.099658	0.630008
	N1972	N	0.251273	0.120714	0.596947
	O1973	O	0.311633	0.080167	0.659721
	O1974	O	0.199197	0.159365	0.535360
	C1975	C	0.357357	0.102333	0.640831
	C1976	C	0.300420	0.143039	0.577704
	N1977	N	0.340256	0.125119	0.611199
	O1978	O	0.278483	0.163164	0.548064
	O1979	O	0.390394	0.082943	0.672143
	C1980	C	0.386241	0.200734	0.617247
	C1981	C	0.376197	0.223447	0.603087
	C1982	C	0.387132	0.218994	0.621953
	C1983	C	0.408253	0.193326	0.653780
	C1984	C	0.417974	0.170740	0.667752
	C1985	C	0.405758	0.175465	0.648099
	H1986	H	0.360116	0.243296	0.578588
	H1987	H	0.432628	0.151127	0.691318
	C1988	C	0.414194	0.195546	0.666499
	C1989	C	0.377180	0.238799	0.612299
	N1990	N	0.391953	0.223382	0.638771
	O1991	O	0.359476	0.262898	0.587086
	O1992	O	0.432495	0.177865	0.693758
	C1993	C	0.377488	0.197906	0.603354
	C1994	C	0.408523	0.156146	0.654025
	N1995	N	0.391485	0.170670	0.626661
	O1996	O	0.420936	0.133045	0.676319
	O1997	O	0.361568	0.214789	0.577698
	C1998	C	0.155487	0.390279	0.624710
	C1999	C	0.145148	0.401615	0.620935
	C2000	C	0.123642	0.397180	0.616019
	C2001	C	0.112947	0.381429	0.615351
	C2002	C	0.124290	0.370011	0.619799
	C2003	C	0.145364	0.374338	0.624330
	H2004	H	0.096508	0.378125	0.611661
	H2005	H	0.153493	0.365646	0.627270
	H2006	H	0.153124	0.413929	0.621218
	C2007	C	0.263279	0.374880	0.642375
	C2008	C	0.274580	0.382417	0.637220
	C2009	C	0.277808	0.371007	0.636835
	C2010	C	0.270401	0.352381	0.641809
	C2011	C	0.258969	0.345484	0.646606
	C2012	C	0.255101	0.356636	0.646780
	H2013	H	0.273067	0.343605	0.641592
	H2014	H	0.245925	0.351205	0.650270
	H2015	H	0.280417	0.396742	0.633456
	C2016	C	0.114761	-0.020818	0.621997
	C2017	C	0.102047	-0.022142	0.623859
	C2018	C	0.104122	-0.008829	0.625200
	C2019	C	0.118001	0.005957	0.624096
	C2020	C	0.130648	0.006862	0.622383
	C2021	C	0.129400	-0.006529	0.621517
	H2022	H	0.118733	0.016752	0.624260
	H2023	H	0.139541	-0.005781	0.620442
	H2024	H	0.090497	-0.033038	0.623869
	C2025	C	0.391645	0.345364	0.643292
	C2026	C	0.404043	0.361075	0.640627
	C2027	C	0.401037	0.376722	0.637407
	C2028	C	0.386444	0.376625	0.637281
	C2029	C	0.374407	0.360707	0.640115
	C2030	C	0.376548	0.345127	0.642864
	H2031	H	0.384504	0.388649	0.635041
	H2032	H	0.366991	0.333011	0.644909
	H2033	H	0.415539	0.361284	0.640835
	C2034	C	0.223983	0.148443	0.588830
	C2035	C	0.212112	0.134194	0.593638
	C2036	C	0.213058	0.115458	0.599224
	C2037	C	0.225271	0.111004	0.599793
	C2038	C	0.237205	0.125393	0.595186
	C2039	C	0.236815	0.144088	0.589797
	H2040	H	0.226483	0.096230	0.604673
	H2041	H	0.246148	0.155060	0.586277
	H2042	H	0.202952	0.137418	0.593491
	C2043	C	0.331553	0.234949	0.615463
	C2044	C	0.341663	0.245877	0.622210
	C2045	C	0.367458	0.250795	0.632725
	C2046	C	0.384106	0.244172	0.637715
	C2047	C	0.373982	0.232746	0.631477
	C2048	C	0.347452	0.228341	0.619935
	H2049	H	0.404276	0.247731	0.646201
	H2050	H	0.339804	0.219574	0.615083
	H2051	H	0.331179	0.249341	0.620973
	C2052	C	0.222330	0.383968	0.652009
	C2053	C	0.255147	0.370155	0.674622
	C2054	C	0.250927	0.380967	0.656790
	C2055	C	0.216840	0.404635	0.619064
	C2056	C	0.184267	0.418663	0.596555
	C2057	C	0.187950	0.407294	0.614217
	H2058	H	0.281701	0.351857	0.703927
	H2059	H	0.157586	0.436515	0.567335
	C2060	C	0.221795	0.409287	0.609247
	C2061	C	0.278197	0.369084	0.672226
	N2062	N	0.257990	0.385975	0.642133
	O2063	O	0.310313	0.348498	0.703692
	O2064	O	0.200032	0.428157	0.579888
	C2065	C	0.215563	0.376489	0.661624
	C2066	C	0.157859	0.415305	0.598303
	N2067	N	0.175993	0.395265	0.628150
	O2068	O	0.124598	0.434317	0.566745
	O2069	O	0.238044	0.358171	0.691215
	C2070	C	0.099608	0.460560	0.599735
	C2071	C	0.090427	0.463883	0.582544
	C2072	C	0.098700	0.441161	0.596105
	C2073	C	0.114914	0.416725	0.624830
	C2074	C	0.123794	0.413573	0.641804
	C2075	C	0.115953	0.436253	0.628552
	H2076	H	0.078645	0.482641	0.560855
	H2077	H	0.136574	0.394641	0.664199
	C2078	C	0.121728	0.396472	0.633357
	C2079	C	0.094724	0.437506	0.585418
	N2080	N	0.111744	0.409941	0.610543
	O2081	O	0.080755	0.454061	0.560995
	O2082	O	0.132762	0.373628	0.654394
	C2083	C	0.095488	0.480601	0.592468
	C2084	C	0.123331	0.439955	0.641103
	N2085	N	0.111174	0.466858	0.618740
	O2086	O	0.136509	0.423931	0.664892
	O2087	O	0.081762	0.503926	0.569147
	C2088	C	0.318211	0.372700	0.620355
	C2089	C	0.286515	0.382690	0.600797
	C2090	C	0.293486	0.379616	0.616645
	C2091	C	0.329715	0.367151	0.649944
	C2092	C	0.361401	0.357204	0.669490
	C2093	C	0.354345	0.360477	0.653494
	H2094	H	0.258515	0.391991	0.575239
	H2095	H	0.389537	0.347509	0.695342
	C2096	C	0.327348	0.366069	0.659738
	C2097	C	0.266587	0.387220	0.603801
	N2098	N	0.289039	0.377597	0.631569
	O2099	O	0.232720	0.398952	0.575886
	O2100	O	0.352282	0.357504	0.685847
	C2101	C	0.321232	0.372707	0.611533
	C2102	C	0.381591	0.352537	0.666828
	N2103	N	0.359843	0.360698	0.640274
	O2104	O	0.415149	0.341818	0.694077
	O2105	O	0.296698	0.380913	0.585786
	C2106	C	0.181806	0.036240	0.633573
	C2107	C	0.211884	0.037214	0.649931
	C2108	C	0.201939	0.063027	0.628485
	C2109	C	0.164607	0.086306	0.593269
	C2110	C	0.134555	0.085319	0.576962
	C2111	C	0.144408	0.059525	0.598227
	H2112	H	0.240892	0.019198	0.677272
	H2113	H	0.105576	0.103328	0.549644
	C2114	C	0.164195	0.110342	0.578086
	C2115	C	0.226593	0.071318	0.636841
	N2116	N	0.201988	0.099857	0.605133
	O2117	O	0.260342	0.057153	0.664308
	O2118	O	0.137834	0.133919	0.549144
	C2119	C	0.182037	0.012199	0.648289
	C2120	C	0.119393	0.051242	0.589000
	N2121	N	0.143704	0.022751	0.620065
	O2122	O	0.085432	0.065350	0.561123
	O2123	O	0.208629	-0.011372	0.677654
	C2124	C	0.398982	0.295729	0.659727
	C2125	C	0.404620	0.272238	0.673754
	C2126	C	0.392830	0.272729	0.656940
	C2127	C	0.376554	0.295175	0.628089
	C2128	C	0.371350	0.318498	0.614400
	C2129	C	0.383028	0.318035	0.631121
	H2130	H	0.416767	0.254974	0.695794
	H2131	H	0.358686	0.336001	0.592032
	C2132	C	0.365949	0.289281	0.615687
	C2133	C	0.393603	0.251537	0.664282
	N2134	N	0.376796	0.262920	0.638396
	O2135	O	0.405831	0.229196	0.687207
	O2136	O	0.351254	0.303391	0.591569
	C2137	C	0.406465	0.302689	0.669857
	C2138	C	0.379576	0.340053	0.621823
	N2139	N	0.393797	0.329601	0.645840
	O2140	O	0.367519	0.362274	0.598938
	O2141	O	0.420183	0.288769	0.693333
	C2142	C	0.260596	0.222471	0.577761
	C2143	C	0.231237	0.223340	0.555080
	C2144	C	0.231999	0.201192	0.570216
	C2145	C	0.259456	0.180107	0.605117
	C2146	C	0.287792	0.179834	0.627146
	C2147	C	0.287979	0.201438	0.612640
	H2148	H	0.210233	0.239491	0.528175
	H2149	H	0.308769	0.163417	0.654082
	C2150	C	0.254658	0.158337	0.614336
	C2151	C	0.208275	0.193809	0.555670
	N2152	N	0.225229	0.167152	0.584471
	O2153	O	0.181080	0.207018	0.526143
	O2154	O	0.272393	0.137103	0.641613
	C2155	C	0.270847	0.241068	0.571924
	C2156	C	0.316797	0.205814	0.630370
	N2157	N	0.305548	0.229263	0.604974
	O2158	O	0.344571	0.192625	0.660053
	O2159	O	0.254066	0.261777	0.545226
	C2160	C	0.028315	0.134205	0.760208
	C2161	C	0.027937	0.120145	0.760376
	C2162	C	0.014863	0.104965	0.762515
	C2163	C	0.003056	0.103301	0.765236
	C2164	C	0.004160	0.117328	0.765461
	C2165	C	0.016439	0.133054	0.762635
	H2166	H	-0.007184	0.091630	0.766711
	H2167	H	0.016408	0.144341	0.761987
	H2168	H	0.037342	0.121165	0.758617
	C2169	C	0.040662	0.187599	0.735821
	C2170	C	0.031540	0.212980	0.716895
	C2171	C	0.061599	0.214111	0.733444
	C2172	C	0.098050	0.191654	0.766206
	C2173	C	0.106932	0.166372	0.784726
	C2174	C	0.077098	0.165048	0.768628
	H2175	H	0.003371	0.230475	0.691530
	H2176	H	0.135134	0.148925	0.810093
	C2177	C	0.123386	0.200010	0.776724
	C2178	C	0.062313	0.237457	0.722005
	N2179	N	0.100458	0.227335	0.749880
	O2180	O	0.036476	0.260205	0.695318
	O2181	O	0.156443	0.186795	0.802452
	C2182	C	0.016097	0.178945	0.727063
	C2183	C	0.077056	0.141102	0.781981
	N2184	N	0.040007	0.150806	0.756354
	O2185	O	0.102545	0.118128	0.808712
	O2186	O	-0.017054	0.192456	0.701070
	C2187	C	-0.002717	0.084653	0.740351
	C2188	C	-0.015259	0.087417	0.721705
	C2189	C	-0.012687	0.065596	0.732250
	C2190	C	0.002027	0.042433	0.760007
	C2191	C	0.013930	0.039884	0.778196
	C2192	C	0.011098	0.061785	0.767481
	H2193	H	-0.025924	0.105257	0.700745
	H2194	H	0.024400	0.022095	0.799011
	C2195	C	0.003052	0.022382	0.766024
	C2196	C	-0.023289	0.061656	0.718350
	N2197	N	-0.012506	0.035174	0.740180
	O2198	O	-0.037909	0.077269	0.693788
	O2199	O	0.015073	-0.000356	0.788433
	C2200	C	-0.001836	0.104178	0.735600
	C2201	C	0.021082	0.066023	0.780885
	N2202	N	0.011989	0.091983	0.760198
	O2203	O	0.033934	0.051058	0.804186
	O2204	O	-0.011131	0.126111	0.715059
	C2205	C	0.482359	0.119610	0.776447
	C2206	C	0.486083	0.120669	0.787956
	C2207	C	0.455331	0.126847	0.770837
	C2208	C	0.423405	0.131203	0.744522
	C2209	C	0.419570	0.130284	0.732864
	C2210	C	0.450011	0.124570	0.749508
	H2211	H	0.510930	0.117170	0.808508
	H2212	H	0.394560	0.133952	0.712163
	C2213	C	0.396299	0.137021	0.732286
	C2214	C	0.449306	0.130364	0.775682
	N2215	N	0.413016	0.136966	0.751244
	O2216	O	0.470448	0.128382	0.795843
	O2217	O	0.366336	0.140711	0.710980
	C2218	C	0.509268	0.114129	0.788363
	C2219	C	0.454722	0.123066	0.742654
	N2220	N	0.490865	0.116679	0.766894
	O2221	O	0.432940	0.126303	0.721302
	O2222	O	0.540438	0.108567	0.811442
	C2223	C	0.118851	0.266470	0.754192
	C2224	C	0.105302	0.252574	0.750729
	C2225	C	0.114916	0.241360	0.753890
	C2226	C	0.138213	0.243450	0.761041
	C2227	C	0.151814	0.257110	0.764981
	C2228	C	0.142110	0.268894	0.761314
	H2229	H	0.145492	0.234756	0.763449
	H2230	H	0.152558	0.279585	0.764146
	H2231	H	0.087166	0.251095	0.745009
	C2232	C	-0.021776	-0.008865	0.744234
	C2233	C	-0.023179	0.004799	0.743613
	C2234	C	-0.012810	0.021815	0.739364
	C2235	C	-0.001785	0.025540	0.735209
	C2236	C	-0.001231	0.011938	0.735370
	C2237	C	-0.010669	-0.005622	0.740368
	H2238	H	0.006321	0.038624	0.732026
	H2239	H	-0.009610	-0.016443	0.741060
	H2240	H	-0.032194	0.002224	0.746308
	C2241	C	0.384909	0.158984	0.746555
	C2242	C	0.400404	0.155628	0.748984
	C2243	C	0.396242	0.141391	0.747645
	C2244	C	0.376874	0.130701	0.743894
	C2245	C	0.360678	0.135213	0.740323
	C2246	C	0.364437	0.149317	0.741562
	H2247	H	0.374185	0.119239	0.743588
	H2248	H	0.352502	0.152112	0.739617
	H2249	H	0.415584	0.163696	0.752207
	C2250	C	0.122559	0.291161	0.765674
	C2251	C	0.140672	0.291696	0.784540
	C2252	C	0.124384	0.317261	0.763528
	C2253	C	0.091526	0.340557	0.726067
	C2254	C	0.072950	0.339982	0.707063
	C2255	C	0.089993	0.314518	0.728292
	H2256	H	0.166271	0.273645	0.813623
	H2257	H	0.047830	0.358101	0.678107
	C2258	C	0.083371	0.364444	0.712595
	C2259	C	0.138699	0.325486	0.775410
	N2260	N	0.113709	0.354013	0.743787
	O2261	O	0.166185	0.311336	0.805495
	O2262	O	0.057207	0.387957	0.681928
	C2263	C	0.134426	0.267818	0.780073
	C2264	C	0.080286	0.307037	0.717583
	N2265	N	0.109071	0.279049	0.750161
	O2266	O	0.054278	0.321461	0.687869
	O2267	O	0.160346	0.244261	0.810628
	C2268	C	0.188804	0.288534	0.758245
	C2269	C	0.185769	0.310133	0.739985
	C2270	C	0.214070	0.312209	0.758967
	C2271	C	0.243691	0.293754	0.793969
	C2272	C	0.247371	0.271716	0.812645
	C2273	C	0.218807	0.269861	0.793460
	H2274	H	0.162731	0.324620	0.712749
	H2275	H	0.270065	0.257503	0.839633
	C2276	C	0.267300	0.303047	0.805078
	C2277	C	0.217896	0.333847	0.746619
	N2278	N	0.249774	0.327327	0.775245
	O2279	O	0.198303	0.353465	0.718309
	O2280	O	0.295283	0.292724	0.833164
	C2281	C	0.161529	0.281893	0.744801
	C2282	C	0.212317	0.250300	0.804058
	N2283	N	0.176187	0.259948	0.772751
	O2284	O	0.232766	0.230571	0.832860
	O2285	O	0.132651	0.292672	0.716267
	C2286	C	0.019771	0.010819	0.723447
	C2287	C	0.016919	0.008306	0.713376
	C2288	C	0.048336	0.001123	0.731574
	C2289	C	0.080305	-0.003248	0.757945
	C2290	C	0.083017	-0.000520	0.767802
	C2291	C	0.051587	0.006684	0.749591
	H2292	H	-0.007648	0.011373	0.693251
	H2293	H	0.107868	-0.004052	0.788379
	C2294	C	0.108479	-0.010884	0.771965
	C2295	C	0.054814	-0.003260	0.727564
	N2296	N	0.090862	-0.009515	0.751664
	O2297	O	0.034259	-0.002058	0.708212
	O2298	O	0.140055	-0.017144	0.795745
	C2299	C	-0.007533	0.016856	0.710902
	C2300	C	0.045440	0.010297	0.754288
	N2301	N	0.010252	0.015167	0.731491
	O2302	O	0.065347	0.009790	0.772871
	O2303	O	-0.038449	0.022021	0.688169
	C2304	C	0.431585	0.458255	0.735486
	C2305	C	0.402001	0.456403	0.719068
	C2306	C	0.412267	0.430759	0.738604
	C2307	C	0.449472	0.408489	0.772185
	C2308	C	0.479056	0.410398	0.788542
	C2309	C	0.468854	0.436058	0.769048
	H2310	H	0.373133	0.473644	0.693040
	H2311	H	0.507932	0.393123	0.814624
	C2312	C	0.450135	0.384296	0.785433
	C2313	C	0.387956	0.421669	0.729316
	N2314	N	0.412482	0.393651	0.758655
	O2315	O	0.354460	0.434873	0.702837
	O2316	O	0.476542	0.361463	0.812798
	C2317	C	0.430444	0.482533	0.722042
	C2318	C	0.492889	0.445490	0.778107
	N2319	N	0.467959	0.473463	0.748710
	O2320	O	0.526402	0.432655	0.804455
	O2321	O	0.403776	0.505265	0.694610
	C2322	C	0.326510	0.108141	0.750063
	C2323	C	0.329209	0.094503	0.767740
	C2324	C	0.295712	0.107095	0.745095
	C2325	C	0.261594	0.131209	0.707324
	C2326	C	0.258683	0.144537	0.689581
	C2327	C	0.292445	0.132362	0.712314
	H2328	H	0.355749	0.075958	0.797060
	H2329	H	0.232428	0.163501	0.660329
	C2330	C	0.232258	0.139886	0.691824
	C2331	C	0.289454	0.099606	0.755087
	N2332	N	0.251345	0.120659	0.722024
	O2333	O	0.311718	0.080129	0.784802
	O2334	O	0.199261	0.159296	0.660436
	C2335	C	0.357431	0.102286	0.765907
	C2336	C	0.300488	0.142983	0.702779
	N2337	N	0.340325	0.125070	0.736271
	O2338	O	0.278547	0.163105	0.673137
	O2339	O	0.390471	0.082900	0.797220
	C2340	C	0.386298	0.200692	0.742312
	C2341	C	0.376257	0.223404	0.728154
	C2342	C	0.387186	0.218951	0.747017
	C2343	C	0.408298	0.193284	0.778839
	C2344	C	0.418017	0.170698	0.792808
	C2345	C	0.405808	0.175424	0.773159
	H2346	H	0.360182	0.243253	0.703658
	H2347	H	0.432664	0.151086	0.816369
	C2348	C	0.414233	0.195504	0.791553
	C2349	C	0.377234	0.238756	0.737363
	N2350	N	0.391997	0.223340	0.763828
	O2351	O	0.359537	0.262854	0.712154
	O2352	O	0.432524	0.177823	0.818807
	C2353	C	0.377548	0.197865	0.728419
	C2354	C	0.408571	0.156107	0.779082
	N2355	N	0.391538	0.170631	0.751721
	O2356	O	0.420979	0.133006	0.801372
	O2357	O	0.361635	0.214747	0.702768
	C2358	C	0.155462	0.390295	0.749680
	C2359	C	0.145136	0.401622	0.745919
	C2360	C	0.123624	0.397190	0.740997
	C2361	C	0.112911	0.381452	0.740308
	C2362	C	0.124241	0.370044	0.744741
	C2363	C	0.145321	0.374367	0.749279
	H2364	H	0.096466	0.378152	0.736612
	H2365	H	0.153442	0.365681	0.752209
	H2366	H	0.153127	0.413926	0.746219
	C2367	C	0.263270	0.374895	0.767358
	C2368	C	0.274579	0.382430	0.762210
	C2369	C	0.277808	0.371024	0.761821
	C2370	C	0.270394	0.352402	0.766787
	C2371	C	0.258952	0.345508	0.771576
	C2372	C	0.255083	0.356656	0.771751
	H2373	H	0.273060	0.343629	0.766568
	H2374	H	0.245901	0.351227	0.775234
	H2375	H	0.280421	0.396753	0.758452
	C2376	C	0.114776	-0.020837	0.747017
	C2377	C	0.102064	-0.022163	0.748881
	C2378	C	0.104144	-0.008853	0.750227
	C2379	C	0.118026	0.005931	0.749126
	C2380	C	0.130671	0.006837	0.747412
	C2381	C	0.129417	-0.006549	0.746540
	H2382	H	0.118762	0.016724	0.749294
	H2383	H	0.139557	-0.005801	0.745463
	H2384	H	0.090514	-0.033058	0.748890
	C2385	C	0.391657	0.345359	0.768300
	C2386	C	0.404055	0.361070	0.765635
	C2387	C	0.401047	0.376720	0.762412
	C2388	C	0.386454	0.376625	0.762283
	C2389	C	0.374417	0.360706	0.765119
	C2390	C	0.376559	0.345124	0.767870
	H2391	H	0.384511	0.388651	0.760040
	H2392	H	0.367003	0.333008	0.769917
	H2393	H	0.415552	0.361277	0.765844
	C2394	C	0.224031	0.148403	0.713881
	C2395	C	0.212162	0.134153	0.718691
	C2396	C	0.213115	0.115414	0.724285
	C2397	C	0.225336	0.110955	0.724862
	C2398	C	0.237270	0.125343	0.720255
	C2399	C	0.236870	0.144043	0.714856
	H2400	H	0.226553	0.096177	0.729748
	H2401	H	0.246202	0.155017	0.711334
	H2402	H	0.202995	0.137383	0.718537
	C2403	C	0.331578	0.234922	0.740498
	C2404	C	0.341685	0.245852	0.747241
	C2405	C	0.367484	0.250768	0.757761
	C2406	C	0.384139	0.244138	0.762760
	C2407	C	0.374020	0.232708	0.756527
	C2408	C	0.347486	0.228307	0.744980
	H2409	H	0.404312	0.247695	0.771250
	H2410	H	0.339840	0.219538	0.740130
	H2411	H	0.331196	0.249320	0.745998
	C2412	C	0.222315	0.383977	0.776990
	C2413	C	0.255131	0.370161	0.799605
	C2414	C	0.250915	0.380974	0.781775
	C2415	C	0.216832	0.404647	0.744048
	C2416	C	0.184259	0.418678	0.721539
	C2417	C	0.187939	0.407308	0.739198
	H2418	H	0.281682	0.351859	0.828909
	H2419	H	0.157581	0.436534	0.692318
	C2420	C	0.221788	0.409299	0.734232
	C2421	C	0.278184	0.369089	0.797210
	N2422	N	0.257982	0.385986	0.767119
	O2423	O	0.310303	0.348508	0.828677
	O2424	O	0.200027	0.428170	0.704874
	C2425	C	0.215544	0.376497	0.786603
	C2426	C	0.157847	0.415322	0.723282
	N2427	N	0.175976	0.395279	0.753127
	O2428	O	0.124587	0.434338	0.691724
	O2429	O	0.238022	0.358175	0.816193
	C2430	C	0.099614	0.460550	0.724744
	C2431	C	0.090428	0.463878	0.707547
	C2432	C	0.098701	0.441158	0.721105
	C2433	C	0.114923	0.416718	0.749836
	C2434	C	0.123808	0.413562	0.766815
	C2435	C	0.115964	0.436241	0.753564
	H2436	H	0.078641	0.482639	0.685855
	H2437	H	0.136593	0.394627	0.789213
	C2438	C	0.121737	0.396468	0.758360
	C2439	C	0.094722	0.437508	0.710413
	N2440	N	0.111737	0.409943	0.735534
	O2441	O	0.080729	0.454069	0.685974
	O2442	O	0.132782	0.373621	0.779404
	C2443	C	0.095495	0.480589	0.717479
	C2444	C	0.123345	0.439939	0.766119
	N2445	N	0.111184	0.466843	0.743755
	O2446	O	0.136525	0.423912	0.789910
	O2447	O	0.081766	0.503915	0.694157
	C2448	C	0.318218	0.372711	0.745351
	C2449	C	0.286521	0.382705	0.725789
	C2450	C	0.293491	0.379633	0.741637
	C2451	C	0.329721	0.367163	0.774939
	C2452	C	0.361409	0.357211	0.794488
	C2453	C	0.354353	0.360484	0.778492
	H2454	H	0.258521	0.392008	0.700230
	H2455	H	0.389546	0.347513	0.820342
	C2456	C	0.327353	0.366082	0.784732
	C2457	C	0.266591	0.387241	0.728789
	N2458	N	0.289042	0.377615	0.756559
	O2459	O	0.232722	0.398978	0.700870
	O2460	O	0.352288	0.357515	0.810842
	C2461	C	0.321240	0.372715	0.736531
	C2462	C	0.381600	0.352540	0.791830
	N2463	N	0.359852	0.360701	0.765276
	O2464	O	0.415158	0.341818	0.819080
	O2465	O	0.296706	0.380921	0.710783
	C2466	C	0.181842	0.036206	0.758614
	C2467	C	0.211923	0.037176	0.774975
	C2468	C	0.201984	0.062987	0.753535
	C2469	C	0.164656	0.086268	0.718323
	C2470	C	0.134600	0.085285	0.702013
	C2471	C	0.144448	0.059493	0.723272
	H2472	H	0.240929	0.019158	0.802313
	H2473	H	0.105624	0.103296	0.674697
	C2474	C	0.164250	0.110302	0.703146
	C2475	C	0.226642	0.071274	0.761895
	N2476	N	0.202042	0.099814	0.730192
	O2477	O	0.260390	0.057107	0.789361
	O2478	O	0.137894	0.133879	0.674209
	C2479	C	0.182066	0.012168	0.773324
	C2480	C	0.119428	0.051214	0.714040
	N2481	N	0.143733	0.022723	0.745100
	O2482	O	0.085467	0.065325	0.686163
	O2483	O	0.208654	-0.011404	0.802684
	C2484	C	0.398998	0.295717	0.784745
	C2485	C	0.404641	0.272223	0.798777
	C2486	C	0.392849	0.272712	0.781965
	C2487	C	0.376568	0.295157	0.753110
	C2488	C	0.371358	0.318483	0.739415
	C2489	C	0.383039	0.318022	0.756135
	H2490	H	0.416793	0.254960	0.820821
	H2491	H	0.358689	0.335985	0.717043
	C2492	C	0.365963	0.289259	0.740710
	C2493	C	0.393626	0.251516	0.789312
	N2494	N	0.376817	0.262897	0.763425
	O2495	O	0.405859	0.229174	0.812240
	O2496	O	0.351262	0.303369	0.716589
	C2497	C	0.406484	0.302680	0.794874
	C2498	C	0.379584	0.340043	0.746833
	N2499	N	0.393811	0.329593	0.770853
	O2500	O	0.367522	0.362264	0.723944
	O2501	O	0.420205	0.288761	0.818351
	C2502	C	0.260620	0.222446	0.702791
	C2503	C	0.231269	0.223310	0.680114
	C2504	C	0.232030	0.201162	0.695250
	C2505	C	0.259478	0.180083	0.730145
	C2506	C	0.287803	0.179816	0.752168
	C2507	C	0.287994	0.201419	0.737664
	H2508	H	0.210273	0.239457	0.653214
	H2509	H	0.308772	0.163404	0.779099
	C2510	C	0.254683	0.158312	0.739367
	C2511	C	0.208317	0.193773	0.680712
	N2512	N	0.225267	0.167119	0.709512
	O2513	O	0.181133	0.206975	0.651192
	O2514	O	0.272412	0.137082	0.766641
	C2515	C	0.270873	0.241042	0.696956
	C2516	C	0.316808	0.205797	0.755393
	N2517	N	0.305568	0.229240	0.730002
	O2518	O	0.344573	0.192613	0.785070
	O2519	O	0.254098	0.261748	0.670262
	C2520	C	0.028367	0.134160	0.885272
	C2521	C	0.027987	0.120102	0.885438
	C2522	C	0.014907	0.104926	0.887569
	C2523	C	0.003098	0.103262	0.890289
	C2524	C	0.004202	0.117286	0.890516
	C2525	C	0.016486	0.133010	0.887694
	H2526	H	-0.007146	0.091593	0.891759
	H2527	H	0.016455	0.144296	0.887048
	H2528	H	0.037394	0.121122	0.883680
	C2529	C	0.040736	0.187544	0.860912
	C2530	C	0.031625	0.212920	0.841999
	C2531	C	0.061689	0.214046	0.858554
	C2532	C	0.098135	0.191588	0.891310
	C2533	C	0.107006	0.166310	0.909817
	C2534	C	0.077167	0.164992	0.893713
	H2535	H	0.003461	0.230415	0.816640
	H2536	H	0.135203	0.148863	0.935179
	C2537	C	0.123479	0.199937	0.901837
	C2538	C	0.062415	0.237384	0.847130
	N2539	N	0.100562	0.227258	0.875008
	O2540	O	0.036586	0.260131	0.820453
	O2541	O	0.156533	0.186721	0.927563
	C2542	C	0.016164	0.178894	0.852145
	C2543	C	0.077115	0.141050	0.907054
	N2544	N	0.040065	0.150757	0.881425
	O2545	O	0.102597	0.118078	0.933778
	O2546	O	-0.016985	0.192408	0.826153
	C2547	C	-0.002680	0.084626	0.865392
	C2548	C	-0.015222	0.087394	0.846744
	C2549	C	-0.012660	0.065578	0.857279
	C2550	C	0.002046	0.042414	0.885031
	C2551	C	0.013951	0.039861	0.903223
	C2552	C	0.011128	0.061758	0.892517
	H2553	H	-0.025880	0.105234	0.825789
	H2554	H	0.024414	0.022073	0.924033
	C2555	C	0.003061	0.022369	0.891038
	C2556	C	-0.023262	0.061642	0.843376
	N2557	N	-0.012498	0.035165	0.865191
	O2558	O	-0.037896	0.077261	0.818804
	O2559	O	0.015075	-0.000368	0.913441
	C2560	C	-0.001794	0.104147	0.860648
	C2561	C	0.021115	0.065991	0.905926
	N2562	N	0.012029	0.091948	0.885246
	O2563	O	0.033964	0.051025	0.929226
	O2564	O	-0.011085	0.126079	0.840111
	C2565	C	0.482372	0.119593	0.901469
	C2566	C	0.486077	0.120671	0.912955
	C2567	C	0.455322	0.126851	0.895832
	C2568	C	0.423410	0.131188	0.869535
	C2569	C	0.419593	0.130250	0.857899
	C2570	C	0.450037	0.124536	0.874546
	H2571	H	0.510914	0.117187	0.933493
	H2572	H	0.394594	0.133904	0.837211
	C2573	C	0.396297	0.137009	0.857290
	C2574	C	0.449276	0.130388	0.900651
	N2575	N	0.412994	0.136974	0.876225
	O2576	O	0.470411	0.128411	0.920806
	O2577	O	0.366342	0.140687	0.835996
	C2578	C	0.509290	0.114107	0.913394
	C2579	C	0.454763	0.123018	0.867709
	N2580	N	0.490902	0.116640	0.891944
	O2581	O	0.432993	0.126241	0.846372
	O2582	O	0.540454	0.108553	0.936467
	C2583	C	0.118979	0.266376	0.879347
	C2584	C	0.105424	0.252483	0.875878
	C2585	C	0.115031	0.241274	0.879030
	C2586	C	0.138327	0.243366	0.886180
	C2587	C	0.151934	0.257021	0.890127
	C2588	C	0.142237	0.268800	0.886468
	H2589	H	0.145597	0.234677	0.888579
	H2590	H	0.152688	0.279489	0.889304
	H2591	H	0.087288	0.251005	0.870159
	C2592	C	-0.021785	-0.008864	0.869227
	C2593	C	-0.023183	0.004797	0.868613
	C2594	C	-0.012810	0.021811	0.864368
	C2595	C	-0.001789	0.025538	0.860209
	C2596	C	-0.001241	0.011940	0.860363
	C2597	C	-0.010683	-0.005618	0.865357
	H2598	H	0.006319	0.038621	0.857027
	H2599	H	-0.009627	-0.016436	0.866046
	H2600	H	-0.032195	0.002220	0.871310
	C2601	C	0.384857	0.159021	0.871498
	C2602	C	0.400364	0.155655	0.873942
	C2603	C	0.396205	0.141412	0.872608
	C2604	C	0.376827	0.130730	0.868847
	C2605	C	0.360618	0.135255	0.865260
	C2606	C	0.364376	0.149362	0.866495
	H2607	H	0.374140	0.119265	0.868545
	H2608	H	0.352432	0.152166	0.864538
	H2609	H	0.415552	0.163717	0.877172
	C2610	C	0.122673	0.291085	0.890808
	C2611	C	0.140781	0.291632	0.909663
	C2612	C	0.124478	0.317201	0.888637
	C2613	C	0.091611	0.340489	0.851174
	C2614	C	0.073040	0.339902	0.832182
	C2615	C	0.090098	0.314434	0.853425
	H2616	H	0.166386	0.273586	0.938746
	H2617	H	0.047913	0.358015	0.803224
	C2618	C	0.083439	0.364385	0.837684
	C2619	C	0.138782	0.325440	0.900503
	N2620	N	0.113777	0.353966	0.868868
	O2621	O	0.166272	0.311299	0.930584
	O2622	O	0.057263	0.387894	0.807011
	C2623	C	0.134554	0.267735	0.905221
	C2624	C	0.080398	0.306942	0.842727
	N2625	N	0.109197	0.278956	0.875314
	O2626	O	0.054385	0.321358	0.813016
	O2627	O	0.160484	0.244181	0.935782
	C2628	C	0.188884	0.288465	0.883349
	C2629	C	0.185829	0.310071	0.865073
	C2630	C	0.214119	0.312159	0.884040
	C2631	C	0.243749	0.293710	0.919043
	C2632	C	0.247449	0.271666	0.937734
	C2633	C	0.218894	0.269799	0.918565
	H2634	H	0.162784	0.324553	0.837836
	H2635	H	0.270149	0.257457	0.964724
	C2636	C	0.267345	0.303016	0.930134
	C2637	C	0.217923	0.333808	0.871670
	N2638	N	0.249802	0.327297	0.900289
	O2639	O	0.198314	0.353426	0.843351
	O2640	O	0.295331	0.292700	0.958216
	C2641	C	0.161624	0.281811	0.869925
	C2642	C	0.212423	0.250230	0.929182
	N2643	N	0.176296	0.259865	0.897885
	O2644	O	0.232883	0.230502	0.957989
	O2645	O	0.132747	0.292579	0.841398
	C2646	C	0.019754	0.010833	0.848428
	C2647	C	0.016897	0.008327	0.838351
	C2648	C	0.048313	0.001147	0.856545
	C2649	C	0.080283	-0.003228	0.882920
	C2650	C	0.083000	-0.000506	0.892784
	C2651	C	0.051571	0.006695	0.874576
	H2652	H	-0.007671	0.011397	0.818222
	H2653	H	0.107852	-0.004040	0.913363
	C2654	C	0.108456	-0.010861	0.896937
	C2655	C	0.054785	-0.003227	0.852527
	N2656	N	0.090839	-0.009490	0.876634
	O2657	O	0.034236	-0.002033	0.833183
	O2658	O	0.140032	-0.017120	0.920718
	C2659	C	-0.007547	0.016865	0.835888
	C2660	C	0.045429	0.010301	0.879279
	N2661	N	0.010240	0.015172	0.856482
	O2662	O	0.065339	0.009789	0.897867
	O2663	O	-0.038464	0.022032	0.813154
	C2664	C	0.431574	0.458258	0.860478
	C2665	C	0.401990	0.456406	0.844062
	C2666	C	0.412255	0.430762	0.863598
	C2667	C	0.449460	0.408492	0.897177
	C2668	C	0.479043	0.410401	0.913533
	C2669	C	0.468841	0.436062	0.894039
	H2670	H	0.373123	0.473647	0.818036
	H2671	H	0.507919	0.393126	0.939614
	C2672	C	0.450123	0.384299	0.910425
	C2673	C	0.387944	0.421673	0.854310
	N2674	N	0.412472	0.393654	0.883652
	O2675	O	0.354453	0.434873	0.827842
	O2676	O	0.476529	0.361467	0.937789
	C2677	C	0.430434	0.482536	0.847034
	C2678	C	0.492877	0.445493	0.903097
	N2679	N	0.467948	0.473466	0.873701
	O2680	O	0.526389	0.432658	0.929444
	O2681	O	0.403766	0.505268	0.819604
	C2682	C	0.326435	0.108193	0.874984
	C2683	C	0.329131	0.094552	0.892660
	C2684	C	0.295636	0.107148	0.870015
	C2685	C	0.261522	0.131269	0.832246
	C2686	C	0.258614	0.144599	0.814504
	C2687	C	0.292374	0.132420	0.837236
	H2688	H	0.355668	0.076002	0.921980
	H2689	H	0.232363	0.163568	0.785252
	C2690	C	0.232189	0.139948	0.816748
	C2691	C	0.289379	0.099658	0.880008
	N2692	N	0.251273	0.120714	0.846947
	O2693	O	0.311633	0.080167	0.909721
	O2694	O	0.199197	0.159365	0.785360
	C2695	C	0.357357	0.102333	0.890831
	C2696	C	0.300420	0.143039	0.827704
	N2697	N	0.340256	0.125119	0.861199
	O2698	O	0.278483	0.163164	0.798064
	O2699	O	0.390394	0.082943	0.922143
	C2700	C	0.386241	0.200734	0.867247
	C2701	C	0.376197	0.223447	0.853087
	C2702	C	0.387132	0.218994	0.871953
	C2703	C	0.408253	0.193326	0.903780
	C2704	C	0.417974	0.170740	0.917752
	C2705	C	0.405758	0.175465	0.898099
	H2706	H	0.360116	0.243296	0.828588
	H2707	H	0.432628	0.151127	0.941318
	C2708	C	0.414194	0.195546	0.916499
	C2709	C	0.377180	0.238799	0.862299
	N2710	N	0.391953	0.223382	0.888771
	O2711	O	0.359476	0.262898	0.837086
	O2712	O	0.432495	0.177865	0.943758
	C2713	C	0.377488	0.197906	0.853354
	C2714	C	0.408523	0.156146	0.904025
	N2715	N	0.391485	0.170670	0.876661
	O2716	O	0.420936	0.133045	0.926319
	O2717	O	0.361568	0.214789	0.827698
	C2718	C	0.155487	0.390279	0.874710
	C2719	C	0.145148	0.401615	0.870935
	C2720	C	0.123642	0.397180	0.866019
	C2721	C	0.112947	0.381429	0.865351
	C2722	C	0.124290	0.370011	0.869799
	C2723	C	0.145364	0.374338	0.874330
	H2724	H	0.096508	0.378125	0.861661
	H2725	H	0.153493	0.365646	0.877270
	H2726	H	0.153124	0.413929	0.871218
	C2727	C	0.263279	0.374880	0.892375
	C2728	C	0.274580	0.382417	0.887220
	C2729	C	0.277808	0.371007	0.886835
	C2730	C	0.270401	0.352381	0.891809
	C2731	C	0.258969	0.345484	0.896606
	C2732	C	0.255101	0.356636	0.896780
	H2733	H	0.273067	0.343605	0.891592
	H2734	H	0.245925	0.351205	0.900270
	H2735	H	0.280417	0.396742	0.883456
	C2736	C	0.114761	-0.020818	0.871997
	C2737	C	0.102047	-0.022142	0.873859
	C2738	C	0.104122	-0.008829	0.875200
	C2739	C	0.118001	0.005957	0.874096
	C2740	C	0.130648	0.006862	0.872383
	C2741	C	0.129400	-0.006529	0.871517
	H2742	H	0.118733	0.016752	0.874260
	H2743	H	0.139541	-0.005781	0.870442
	H2744	H	0.090497	-0.033038	0.873869
	C2745	C	0.391645	0.345364	0.893292
	C2746	C	0.404043	0.361075	0.890627
	C2747	C	0.401037	0.376722	0.887407
	C2748	C	0.386444	0.376625	0.887281
	C2749	C	0.374407	0.360707	0.890115
	C2750	C	0.376548	0.345127	0.892864
	H2751	H	0.384504	0.388649	0.885041
	H2752	H	0.366991	0.333011	0.894909
	H2753	H	0.415539	0.361284	0.890835
	C2754	C	0.223983	0.148443	0.838830
	C2755	C	0.212112	0.134194	0.843638
	C2756	C	0.213058	0.115458	0.849224
	C2757	C	0.225271	0.111004	0.849793
	C2758	C	0.237205	0.125393	0.845186
	C2759	C	0.236815	0.144088	0.839797
	H2760	H	0.226483	0.096230	0.854673
	H2761	H	0.246148	0.155060	0.836277
	H2762	H	0.202952	0.137418	0.843491
	C2763	C	0.331553	0.234949	0.865463
	C2764	C	0.341663	0.245877	0.872210
	C2765	C	0.367458	0.250795	0.882725
	C2766	C	0.384106	0.244172	0.887715
	C2767	C	0.373982	0.232746	0.881477
	C2768	C	0.347452	0.228341	0.869935
	H2769	H	0.404276	0.247731	0.896201
	H2770	H	0.339804	0.219574	0.865083
	H2771	H	0.331179	0.249341	0.870973
	C2772	C	0.222330	0.383968	0.902009
	C2773	C	0.255147	0.370155	0.924622
	C2774	C	0.250927	0.380967	0.906790
	C2775	C	0.216840	0.404635	0.869064
	C2776	C	0.184267	0.418663	0.846555
	C2777	C	0.187950	0.407294	0.864217
	H2778	H	0.281701	0.351857	0.953927
	H2779	H	0.157586	0.436515	0.817335
	C2780	C	0.221795	0.409287	0.859247
	C2781	C	0.278197	0.369084	0.922226
	N2782	N	0.257990	0.385975	0.892133
	O2783	O	0.310313	0.348498	0.953692
	O2784	O	0.200032	0.428157	0.829888
	C2785	C	0.215563	0.376489	0.911624
	C2786	C	0.157859	0.415305	0.848303
	N2787	N	0.175993	0.395265	0.878150
	O2788	O	0.124598	0.434317	0.816745
	O2789	O	0.238044	0.358171	0.941215
	C2790	C	0.099608	0.460560	0.849735
	C2791	C	0.090427	0.463883	0.832544
	C2792	C	0.098700	0.441161	0.846105
	C2793	C	0.114914	0.416725	0.874830
	C2794	C	0.123794	0.413573	0.891804
	C2795	C	0.115953	0.436253	0.878552
	H2796	H	0.078645	0.482641	0.810855
	H2797	H	0.136574	0.394641	0.914199
	C2798	C	0.121728	0.396472	0.883357
	C2799	C	0.094724	0.437506	0.835418
	N2800	N	0.111744	0.409941	0.860543
	O2801	O	0.080755	0.454061	0.810995
	O2802	O	0.132762	0.373628	0.904394
	C2803	C	0.095488	0.480601	0.842468
	C2804	C	0.123331	0.439955	0.891103
	N2805	N	0.111174	0.466858	0.868740
	O2806	O	0.136509	0.423931	0.914892
	O2807	O	0.081762	0.503926	0.819147
	C2808	C	0.318211	0.372700	0.870355
	C2809	C	0.286515	0.382690	0.850797
	C2810	C	0.293486	0.379616	0.866645
	C2811	C	0.329715	0.367151	0.899944
	C2812	C	0.361401	0.357204	0.919490
	C2813	C	0.354345	0.360477	0.903494
	H2814	H	0.258515	0.391991	0.825239
	H2815	H	0.389537	0.347509	0.945342
	C2816	C	0.327348	0.366069	0.909738
	C2817	C	0.266587	0.387220	0.853801
	N2818	N	0.289039	0.377597	0.881569
	O2819	O	0.232720	0.398952	0.825886
	O2820	O	0.352282	0.357504	0.935847
	C2821	C	0.321232	0.372707	0.861533
	C2822	C	0.381591	0.352537	0.916828
	N2823	N	0.359843	0.360698	0.890274
	O2824	O	0.415149	0.341818	0.944077
	O2825	O	0.296698	0.380913	0.835786
	C2826	C	0.181806	0.036240	0.883573
	C2827	C	0.211884	0.037214	0.899931
	C2828	C	0.201939	0.063027	0.878485
	C2829	C	0.164607	0.086306	0.843269
	C2830	C	0.134555	0.085319	0.826962
	C2831	C	0.144408	0.059525	0.848227
	H2832	H	0.240892	0.019198	0.927272
	H2833	H	0.105576	0.103328	0.799644
	C2834	C	0.164195	0.110342	0.828086
	C2835	C	0.226593	0.071318	0.886841
	N2836	N	0.201988	0.099857	0.855133
	O2837	O	0.260342	0.057153	0.914308
	O2838	O	0.137834	0.133919	0.799144
	C2839	C	0.182037	0.012199	0.898289
	C2840	C	0.119393	0.051242	0.839000
	N2841	N	0.143704	0.022751	0.870065
	O2842	O	0.085432	0.065350	0.811123
	O2843	O	0.208629	-0.011372	0.927654
	C2844	C	0.398982	0.295729	0.909727
	C2845	C	0.404620	0.272238	0.923754
	C2846	C	0.392830	0.272729	0.906940
	C2847	C	0.376554	0.295175	0.878089
	C2848	C	0.371350	0.318498	0.864400
	C2849	C	0.383028	0.318035	0.881121
	H2850	H	0.416767	0.254974	0.945794
	H2851	H	0.358686	0.336001	0.842032
	C2852	C	0.365949	0.289281	0.865687
	C2853	C	0.393603	0.251537	0.914282
	N2854	N	0.376796	0.262920	0.888396
	O2855	O	0.405831	0.229196	0.937207
	O2856	O	0.351254	0.303391	0.841569
	C2857	C	0.406465	0.302689	0.919857
	C2858	C	0.379576	0.340053	0.871823
	N2859	N	0.393797	0.329601	0.895840
	O2860	O	0.367519	0.362274	0.848938
	O2861	O	0.420183	0.288769	0.943333
	C2862	C	0.260596	0.222471	0.827761
	C2863	C	0.231237	0.223340	0.805080
	C2864	C	0.231999	0.201192	0.820216
	C2865	C	0.259456	0.180107	0.855117
	C2866	C	0.287792	0.179834	0.877146
	C2867	C	0.287979	0.201438	0.862640
	H2868	H	0.210233	0.239491	0.778175
	H2869	H	0.308769	0.163417	0.904082
	C2870	C	0.254658	0.158337	0.864336
	C2871	C	0.208275	0.193809	0.805670
	N2872	N	0.225229	0.167152	0.834471
	O2873	O	0.181080	0.207018	0.776143
	O2874	O	0.272393	0.137103	0.891613
	C2875	C	0.270847	0.241068	0.821924
	C2876	C	0.316797	0.205814	0.880370
	N2877	N	0.305548	0.229263	0.854974
	O2878	O	0.344571	0.192625	0.910053
	O2879	O	0.254066	0.261777	0.795226
	C2880	C	0.028315	0.634205	0.010208
	C2881	C	0.027937	0.620145	0.010376
	C2882	C	0.014863	0.604965	0.012515
	C2883	C	0.003056	0.603301	0.015236
	C2884	C	0.004160	0.617328	0.015461
	C2885	C	0.016439	0.633054	0.012635
	H2886	H	-0.007184	0.591630	0.016711
	H2887	H	0.016408	0.644341	0.011987
	H2888	H	0.037342	0.621165	0.008617
	C2889	C	0.040662	0.687599	-0.014179
	C2890	C	0.031540	0.712980	-0.033105
	C2891	C	0.061599	0.714111	-0.016556
	C2892	C	0.098050	0.691654	0.016206
	C2893	C	0.106932	0.666372	0.034726
	C2894	C	0.077098	0.665048	0.018628
	H2895	H	0.003371	0.730475	-0.058470
	H2896	H	0.135134	0.648925	0.060093
	C2897	C	0.123386	0.700010	0.026724
	C2898	C	0.062313	0.737457	-0.027995
	N2899	N	0.100458	0.727335	-0.000120
	O2900	O	0.036476	0.760205	-0.054682
	O2901	O	0.156443	0.686795	0.052452
	C2902	C	0.016097	0.678945	-0.022937
	C2903	C	0.077056	0.641102	0.031981
	N2904	N	0.040007	0.650806	0.006354
	O2905	O	0.102545	0.618128	0.058712
	O2906	O	-0.017054	0.692456	-0.048930
	C2907	C	-0.002717	0.584653	-0.009649
	C2908	C	-0.015259	0.587417	-0.028295
	C2909	C	-0.012687	0.565596	-0.017750
	C2910	C	0.002027	0.542433	0.010007
	C2911	C	0.013930	0.539884	0.028196
	C2912	C	0.011098	0.561785	0.017481
	H2913	H	-0.025924	0.605257	-0.049255
	H2914	H	0.024400	0.522095	0.049011
	C2915	C	0.003052	0.522382	0.016024
	C2916	C	-0.023289	0.561656	-0.031650
	N2917	N	-0.012506	0.535174	-0.009820
	O2918	O	-0.037909	0.577269	-0.056212
	O2919	O	0.015073	0.499644	0.038433
	C2920	C	-0.001836	0.604178	-0.014400
	C2921	C	0.021082	0.566023	0.030885
	N2922	N	0.011989	0.591983	0.010198
	O2923	O	0.033934	0.551058	0.054186
	O2924	O	-0.011131	0.626111	-0.034941
	C2925	C	0.482359	0.619610	0.026447
	C2926	C	0.486083	0.620669	0.037956
	C2927	C	0.455331	0.626847	0.020837
	C2928	C	0.423405	0.631203	-0.005478
	C2929	C	0.419570	0.630284	-0.017136
	C2930	C	0.450011	0.624570	-0.000492
	H2931	H	0.510930	0.617170	0.058508
	H2932	H	0.394560	0.633952	-0.037837
	C2933	C	0.396299	0.637021	-0.017714
	C2934	C	0.449306	0.630364	0.025682
	N2935	N	0.413016	0.636966	0.001244
	O2936	O	0.470448	0.628382	0.045843
	O2937	O	0.366336	0.640711	-0.039020
	C2938	C	0.509268	0.614129	0.038363
	C2939	C	0.454722	0.623066	-0.007346
	N2940	N	0.490865	0.616679	0.016894
	O2941	O	0.432940	0.626303	-0.028698
	O2942	O	0.540438	0.608567	0.061442
	C2943	C	0.118851	0.766470	0.004192
	C2944	C	0.105302	0.752574	0.000729
	C2945	C	0.114916	0.741360	0.003890
	C2946	C	0.138213	0.743450	0.011041
	C2947	C	0.151814	0.757110	0.014981
	C2948	C	0.142110	0.768894	0.011314
	H2949	H	0.145492	0.734756	0.013449
	H2950	H	0.152558	0.779585	0.014146
	H2951	H	0.087166	0.751095	-0.004991
	C2952	C	-0.021776	0.491135	-0.005766
	C2953	C	-0.023179	0.504799	-0.006387
	C2954	C	-0.012810	0.521815	-0.010636
	C2955	C	-0.001785	0.525540	-0.014791
	C2956	C	-0.001231	0.511938	-0.014630
	C2957	C	-0.010669	0.494378	-0.009632
	H2958	H	0.006321	0.538624	-0.017974
	H2959	H	-0.009610	0.483557	-0.008940
	H2960	H	-0.032194	0.502224	-0.003692
	C2961	C	0.384909	0.658984	-0.003445
	C2962	C	0.400404	0.655628	-0.001016
	C2963	C	0.396242	0.641391	-0.002355
	C2964	C	0.376874	0.630701	-0.006106
	C2965	C	0.360678	0.635213	-0.009677
	C2966	C	0.364437	0.649317	-0.008438
	H2967	H	0.374185	0.619239	-0.006412
	H2968	H	0.352502	0.652112	-0.010383
	H2969	H	0.415584	0.663696	0.002207
	C2970	C	0.122559	0.791161	0.015674
	C2971	C	0.140672	0.791696	0.034540
	C2972	C	0.124384	0.817261	0.013528
	C2973	C	0.091526	0.840557	-0.023933
	C2974	C	0.072950	0.839982	-0.042937
	C2975	C	0.089993	0.814518	-0.021708
	H2976	H	0.166271	0.773645	0.063623
	H2977	H	0.047830	0.858101	-0.071893
	C2978	C	0.083371	0.864444	-0.037405
	C2979	C	0.138699	0.825486	0.025410
	N2980	N	0.113709	0.854013	-0.006213
	O2981	O	0.166185	0.811336	0.055495
	O2982	O	0.057207	0.887957	-0.068072
	C2983	C	0.134426	0.767818	0.030073
	C2984	C	0.080286	0.807037	-0.032417
	N2985	N	0.109071	0.779049	0.000161
	O2986	O	0.054278	0.821461	-0.062131
	O2987	O	0.160346	0.744261	0.060628
	C2988	C	0.188804	0.788534	0.008245
	C2989	C	0.185769	0.810133	-0.010015
	C2990	C	0.214070	0.812209	0.008967
	C2991	C	0.243691	0.793754	0.043969
	C2992	C	0.247371	0.771716	0.062645
	C2993	C	0.218807	0.769861	0.043460
	H2994	H	0.162731	0.824620	-0.037251
	H2995	H	0.270065	0.757503	0.089633
	C2996	C	0.267300	0.803047	0.055078
	C2997	C	0.217896	0.833847	-0.003381
	N2998	N	0.249774	0.827327	0.025245
	O2999	O	0.198303	0.853465	-0.031691
	O3000	O	0.295283	0.792724	0.083164
	C3001	C	0.161529	0.781893	-0.005199
	C3002	C	0.212317	0.750300	0.054058
	N3003	N	0.176187	0.759948	0.022751
	O3004	O	0.232766	0.730571	0.082860
	O3005	O	0.132651	0.792672	-0.033733
	C3006	C	0.019771	0.510819	-0.026553
	C3007	C	0.016919	0.508306	-0.036624
	C3008	C	0.048336	0.501123	-0.018426
	C3009	C	0.080305	0.496752	0.007945
	C3010	C	0.083017	0.499480	0.017802
	C3011	C	0.051587	0.506684	-0.000409
	H3012	H	-0.007648	0.511373	-0.056749
	H3013	H	0.107868	0.495948	0.038379
	C3014	C	0.108479	0.489116	0.021965
	C3015	C	0.054814	0.496740	-0.022436
	N3016	N	0.090862	0.490485	0.001664
	O3017	O	0.034259	0.497942	-0.041788
	O3018	O	0.140055	0.482856	0.045745
	C3019	C	-0.007533	0.516856	-0.039098
	C3020	C	0.045440	0.510297	0.004288
	N3021	N	0.010252	0.515167	-0.018509
	O3022	O	0.065347	0.509790	0.022871
	O3023	O	-0.038449	0.522021	-0.061831
	C3024	C	0.431585	0.958255	-0.014514
	C3025	C	0.402001	0.956403	-0.030932
	C3026	C	0.412267	0.930759	-0.011396
	C3027	C	0.449472	0.908489	0.022185
	C3028	C	0.479056	0.910398	0.038542
	C3029	C	0.468854	0.936058	0.019048
	H3030	H	0.373133	0.973644	-0.056960
	H3031	H	0.507932	0.893123	0.064624
	C3032	C	0.450135	0.884296	0.035433
	C3033	C	0.387956	0.921669	-0.020684
	N3034	N	0.412482	0.893651	0.008655
	O3035	O	0.354460	0.934873	-0.047163
	O3036	O	0.476542	0.861463	0.062798
	C3037	C	0.430444	0.982533	-0.027958
	C3038	C	0.492889	0.945490	0.028107
	N3039	N	0.467959	0.973463	-0.001290
	O3040	O	0.526402	0.932655	0.054455
	O3041	O	0.403776	1.005265	-0.055390
	C3042	C	0.326510	0.608141	0.000063
	C3043	C	0.329209	0.594503	0.017740
	C3044	C	0.295712	0.607095	-0.004905
	C3045	C	0.261594	0.631209	-0.042676
	C3046	C	0.258683	0.644537	-0.060419
	C3047	C	0.292445	0.632362	-0.037686
	H3048	H	0.355749	0.575958	0.047060
	H3049	H	0.232428	0.663501	-0.089671
	C3050	C	0.232258	0.639886	-0.058176
	C3051	C	0.289454	0.599606	0.005087
	N3052	N	0.251345	0.620659	-0.027976
	O3053	O	0.311718	0.580129	0.034802
	O3054	O	0.199261	0.659296	-0.089564
	C3055	C	0.357431	0.602286	0.015907
	C3056	C	0.300488	0.642983	-0.047221
	N3057	N	0.340325	0.625070	-0.013729
	O3058	O	0.278547	0.663105	-0.076863
	O3059	O	0.390471	0.582900	0.047220
	C3060	C	0.386298	0.700692	-0.007688
	C3061	C	0.376257	0.723404	-0.021846
	C3062	C	0.387186	0.718951	-0.002983
	C3063	C	0.408298	0.693284	0.028839
	C3064	C	0.418017	0.670698	0.042808
	C3065	C	0.405808	0.675424	0.023159
	H3066	H	0.360182	0.743253	-0.046342
	H3067	H	0.432664	0.651086	0.066369
	C3068	C	0.414233	0.695504	0.041553
	C3069	C	0.377234	0.738756	-0.012637
	N3070	N	0.391997	0.723340	0.013828
	O3071	O	0.359537	0.762854	-0.037846
	O3072	O	0.432524	0.677823	0.068807
	C3073	C	0.377548	0.697865	-0.021581
	C3074	C	0.408571	0.656107	0.029082
	N3075	N	0.391538	0.670631	0.001721
	O3076	O	0.420979	0.633006	0.051372
	O3077	O	0.361635	0.714747	-0.047232
	C3078	C	0.155462	0.890295	-0.000320
	C3079	C	0.145136	0.901622	-0.004081
	C3080	C	0.123624	0.897190	-0.009003
	C3081	C	0.112911	0.881452	-0.009692
	C3082	C	0.124241	0.870044	-0.005259
	C3083	C	0.145321	0.874367	-0.000721
	H3084	H	0.096466	0.878152	-0.013388
	H3085	H	0.153442	0.865681	0.002209
	H3086	H	0.153127	0.913926	-0.003781
	C3087	C	0.263270	0.874895	0.017358
	C3088	C	0.274579	0.882430	0.012210
	C3089	C	0.277808	0.871024	0.011821
	C3090	C	0.270394	0.852402	0.016787
	C3091	C	0.258952	0.845508	0.021576
	C3092	C	0.255083	0.856656	0.021751
	H3093	H	0.273060	0.843629	0.016568
	H3094	H	0.245901	0.851227	0.025234
	H3095	H	0.280421	0.896753	0.008452
	C3096	C	0.114776	0.479163	-0.002983
	C3097	C	0.102064	0.477837	-0.001119
	C3098	C	0.104144	0.491147	0.000227
	C3099	C	0.118026	0.505931	-0.000874
	C3100	C	0.130671	0.506837	-0.002588
	C3101	C	0.129417	0.493451	-0.003460
	H3102	H	0.118762	0.516724	-0.000706
	H3103	H	0.139557	0.494199	-0.004537
	H3104	H	0.090514	0.466942	-0.001110
	C3105	C	0.391657	0.845359	0.018300
	C3106	C	0.404055	0.861070	0.015635
	C3107	C	0.401047	0.876720	0.012412
	C3108	C	0.386454	0.876625	0.012283
	C3109	C	0.374417	0.860706	0.015119
	C3110	C	0.376559	0.845124	0.017870
	H3111	H	0.384511	0.888651	0.010040
	H3112	H	0.367003	0.833008	0.019917
	H3113	H	0.415552	0.861277	0.015844
	C3114	C	0.224031	0.648403	-0.036119
	C3115	C	0.212162	0.634153	-0.031309
	C3116	C	0.213115	0.615414	-0.025715
	C3117	C	0.225336	0.610955	-0.025138
	C3118	C	0.237270	0.625343	-0.029745
	C3119	C	0.236870	0.644043	-0.035144
	H3120	H	0.226553	0.596177	-0.020252
	H3121	H	0.246202	0.655017	-0.038666
	H3122	H	0.202995	0.637383	-0.031463
	C3123	C	0.331578	0.734922	-0.009502
	C3124	C	0.341685	0.745852	-0.002759
	C3125	C	0.367484	0.750768	0.007761
	C3126	C	0.384139	0.744138	0.012760
	C3127	C	0.374020	0.732708	0.006527
	C3128	C	0.347486	0.728307	-0.005020
	H3129	H	0.404312	0.747695	0.021250
	H3130	H	0.339840	0.719538	-0.009870
	H3131	H	0.331196	0.749320	-0.004002
	C3132	C	0.222315	0.883977	0.026990
	C3133	C	0.255131	0.870161	0.049605
	C3134	C	0.250915	0.880974	0.031775
	C3135	C	0.216832	0.904647	-0.005952
	C3136	C	0.184259	0.918678	-0.028461
	C3137	C	0.187939	0.907308	-0.010802
	H3138	H	0.281682	0.851859	0.078909
	H3139	H	0.157581	0.936534	-0.057682
	C3140	C	0.221788	0.909299	-0.015768
	C3141	C	0.278184	0.869089	0.047210
	N3142	N	0.257982	0.885986	0.017119
	O3143	O	0.310303	0.848508	0.078677
	O3144	O	0.200027	0.928170	-0.045126
	C3145	C	0.215544	0.876497	0.036603
	C3146	C	0.157847	0.915322	-0.026718
	N3147	N	0.175976	0.895279	0.003127
	O3148	O	0.124587	0.934338	-0.058276
	O3149	O	0.238022	0.858175	0.066193
	C3150	C	0.099614	0.960550	-0.025256
	C3151	C	0.090428	0.963878	-0.042453
	C3152	C	0.098701	0.941158	-0.028895
	C3153	C	0.114923	0.916718	-0.000164
	C3154	C	0.123808	0.913562	0.016815
	C3155	C	0.115964	0.936241	0.003564
	H3156	H	0.078641	0.982639	-0.064145
	H3157	H	0.136593	0.894627	0.039213
	C3158	C	0.121737	0.896468	0.008360
	C3159	C	0.094722	0.937508	-0.039587
	N3160	N	0.111737	0.909943	-0.014466
	O3161	O	0.080729	0.954069	-0.064026
	O3162	O	0.132782	0.873621	0.029404
	C3163	C	0.095495	0.980589	-0.032521
	C3164	C	0.123345	0.939939	0.016119
	N3165	N	0.111184	0.966843	-0.006245
	O3166	O	0.136525	0.923912	0.039910
	O3167	O	0.081766	1.003915	-0.055843
	C3168	C	0.318218	0.872711	-0.004649
	C3169	C	0.286521	0.882705	-0.024211
	C3170	C	0.293491	0.879633	-0.008363
	C3171	C	0.329721	0.867163	0.024939
	C3172	C	0.361409	0.857211	0.044488
	C3173	C	0.354353	0.860484	0.028492
	H3174	H	0.258521	0.892008	-0.049770
	H3175	H	0.389546	0.847513	0.070342
	C3176	C	0.327353	0.866082	0.034732
	C3177	C	0.266591	0.887241	-0.021211
	N3178	N	0.289042	0.877615	0.006559
	O3179	O	0.232722	0.898978	-0.049130
	O3180	O	0.352288	0.857515	0.060842
	C3181	C	0.321240	0.872715	-0.013469
	C3182	C	0.381600	0.852540	0.041830
	N3183	N	0.359852	0.860701	0.015276
	O3184	O	0.415158	0.841818	0.069080
	O3185	O	0.296706	0.880921	-0.039217
	C3186	C	0.181842	0.536206	0.008614
	C3187	C	0.211923	0.537176	0.024975
	C3188	C	0.201984	0.562987	0.003535
	C3189	C	0.164656	0.586268	-0.031677
	C3190	C	0.134600	0.585285	-0.047987
	C3191	C	0.144448	0.559493	-0.026728
	H3192	H	0.240929	0.519158	0.052313
	H3193	H	0.105624	0.603296	-0.075303
	C3194	C	0.164250	0.610302	-0.046854
	C3195	C	0.226642	0.571274	0.011895
	N3196	N	0.202042	0.599814	-0.019808
	O3197	O	0.260390	0.557107	0.039361
	O3198	O	0.137894	0.633879	-0.075791
	C3199	C	0.182066	0.512168	0.023324
	C3200	C	0.119428	0.551214	-0.035960
	N3201	N	0.143733	0.522723	-0.004900
	O3202	O	0.085467	0.565325	-0.063837
	O3203	O	0.208654	0.488596	0.052684
	C3204	C	0.398998	0.795717	0.034745
	C3205	C	0.404641	0.772223	0.048777
	C3206	C	0.392849	0.772712	0.031965
	C3207	C	0.376568	0.795157	0.003110
	C3208	C	0.371358	0.818483	-0.010585
	C3209	C	0.383039	0.818022	0.006135
	H3210	H	0.416793	0.754960	0.070821
	H3211	H	0.358689	0.835985	-0.032957
	C3212	C	0.365963	0.789259	-0.009290
	C3213	C	0.393626	0.751516	0.039312
	N3214	N	0.376817	0.762897	0.013425
	O3215	O	0.405859	0.729174	0.062240
	O3216	O	0.351262	0.803369	-0.033411
	C3217	C	0.406484	0.802680	0.044874
	C3218	C	0.379584	0.840043	-0.003167
	N3219	N	0.393811	0.829593	0.020853
	O3220	O	0.367522	0.862264	-0.026056
	O3221	O	0.420205	0.788761	0.068351
	C3222	C	0.260620	0.722446	-0.047209
	C3223	C	0.231269	0.723310	-0.069886
	C3224	C	0.232030	0.701162	-0.054750
	C3225	C	0.259478	0.680083	-0.019855
	C3226	C	0.287803	0.679816	0.002168
	C3227	C	0.287994	0.701419	-0.012336
	H3228	H	0.210273	0.739457	-0.096786
	H3229	H	0.308772	0.663404	0.029099
	C3230	C	0.254683	0.658312	-0.010633
	C3231	C	0.208317	0.693773	-0.069288
	N3232	N	0.225267	0.667119	-0.040488
	O3233	O	0.181133	0.706975	-0.098808
	O3234	O	0.272412	0.637082	0.016641
	C3235	C	0.270873	0.741042	-0.053044
	C3236	C	0.316808	0.705797	0.005393
	N3237	N	0.305568	0.729240	-0.019998
	O3238	O	0.344573	0.692613	0.035070
	O3239	O	0.254098	0.761748	-0.079738
	C3240	C	0.028367	0.634160	0.135272
	C3241	C	0.027987	0.620102	0.135438
	C3242	C	0.014907	0.604926	0.137569
	C3243	C	0.003098	0.603262	0.140289
	C3244	C	0.004202	0.617286	0.140516
	C3245	C	0.016486	0.633010	0.137694
	H3246	H	-0.007146	0.591593	0.141759
	H3247	H	0.016455	0.644296	0.137048
	H3248	H	0.037394	0.621122	0.133680
	C3249	C	0.040736	0.687544	0.110912
	C3250	C	0.031625	0.712920	0.091999
	C3251	C	0.061689	0.714046	0.108554
	C3252	C	0.098135	0.691588	0.141310
	C3253	C	0.107006	0.666310	0.159817
	C3254	C	0.077167	0.664992	0.143713
	H3255	H	0.003461	0.730415	0.066640
	H3256	H	0.135203	0.648863	0.185179
	C3257	C	0.123479	0.699937	0.151837
	C3258	C	0.062415	0.737384	0.097130
	N3259	N	0.100562	0.727258	0.125008
	O3260	O	0.036586	0.760131	0.070453
	O3261	O	0.156533	0.686721	0.177563
	C3262	C	0.016164	0.678894	0.102145
	C3263	C	0.077115	0.641050	0.157054
	N3264	N	0.040065	0.650757	0.131425
	O3265	O	0.102597	0.618078	0.183778
	O3266	O	-0.016985	0.692408	0.076153
	C3267	C	-0.002680	0.584626	0.115392
	C3268	C	-0.015222	0.587394	0.096744
	C3269	C	-0.012660	0.565578	0.107279
	C3270	C	0.002046	0.542414	0.135031
	C3271	C	0.013951	0.539861	0.153223
	C3272	C	0.011128	0.561758	0.142517
	H3273	H	-0.025880	0.605234	0.075789
	H3274	H	0.024414	0.522073	0.174033
	C3275	C	0.003061	0.522369	0.141038
	C3276	C	-0.023262	0.561642	0.093376
	N3277	N	-0.012498	0.535165	0.115191
	O3278	O	-0.037896	0.577261	0.068804
	O3279	O	0.015075	0.499632	0.163441
	C3280	C	-0.001794	0.604147	0.110648
	C3281	C	0.021115	0.565991	0.155926
	N3282	N	0.012029	0.591948	0.135246
	O3283	O	0.033964	0.551025	0.179226
	O3284	O	-0.011085	0.626079	0.090111
	C3285	C	0.482372	0.619593	0.151469
	C3286	C	0.486077	0.620671	0.162955
	C3287	C	0.455322	0.626851	0.145832
	C3288	C	0.423410	0.631188	0.119535
	C3289	C	0.419593	0.630250	0.107899
	C3290	C	0.450037	0.624536	0.124546
	H3291	H	0.510914	0.617187	0.183493
	H3292	H	0.394594	0.633904	0.087211
	C3293	C	0.396297	0.637009	0.107290
	C3294	C	0.449276	0.630388	0.150651
	N3295	N	0.412994	0.636974	0.126225
	O3296	O	0.470411	0.628411	0.170806
	O3297	O	0.366342	0.640687	0.085996
	C3298	C	0.509290	0.614107	0.163394
	C3299	C	0.454763	0.623018	0.117709
	N3300	N	0.490902	0.616640	0.141944
	O3301	O	0.432993	0.626241	0.096372
	O3302	O	0.540454	0.608553	0.186467
	C3303	C	0.118979	0.766376	0.129347
	C3304	C	0.105424	0.752483	0.125878
	C3305	C	0.115031	0.741274	0.129030
	C3306	C	0.138327	0.743366	0.136180
	C3307	C	0.151934	0.757021	0.140127
	C3308	C	0.142237	0.768800	0.136468
	H3309	H	0.145597	0.734677	0.138579
	H3310	H	0.152688	0.779489	0.139304
	H3311	H	0.087288	0.751005	0.120159
	C3312	C	-0.021785	0.491136	0.119227
	C3313	C	-0.023183	0.504797	0.118613
	C3314	C	-0.012810	0.521811	0.114368
	C3315	C	-0.001789	0.525538	0.110209
	C3316	C	-0.001241	0.511940	0.110363
	C3317	C	-0.010683	0.494382	0.115357
	H3318	H	0.006319	0.538621	0.107027
	H3319	H	-0.009627	0.483564	0.116046
	H3320	H	-0.032195	0.502220	0.121310
	C3321	C	0.384857	0.659021	0.121498
	C3322	C	0.400364	0.655655	0.123942
	C3323	C	0.396205	0.641412	0.122608
	C3324	C	0.376827	0.630730	0.118847
	C3325	C	0.360618	0.635255	0.115260
	C3326	C	0.364376	0.649362	0.116495
	H3327	H	0.374140	0.619265	0.118545
	H3328	H	0.352432	0.652166	0.114538
	H3329	H	0.415552	0.663717	0.127172
	C3330	C	0.122673	0.791085	0.140808
	C3331	C	0.140781	0.791632	0.159663
	C3332	C	0.124478	0.817201	0.138637
	C3333	C	0.091611	0.840489	0.101174
	C3334	C	0.073040	0.839902	0.082182
	C3335	C	0.090098	0.814434	0.103425
	H3336	H	0.166386	0.773586	0.188746
	H3337	H	0.047913	0.858015	0.053224
	C3338	C	0.083439	0.864385	0.087684
	C3339	C	0.138782	0.825440	0.150503
	N3340	N	0.113777	0.853966	0.118868
	O3341	O	0.166272	0.811299	0.180584
	O3342	O	0.057263	0.887894	0.057011
	C3343	C	0.134554	0.767735	0.155221
	C3344	C	0.080398	0.806942	0.092727
	N3345	N	0.109197	0.778956	0.125314
	O3346	O	0.054385	0.821358	0.063016
	O3347	O	0.160484	0.744181	0.185782
	C3348	C	0.188884	0.788465	0.133349
	C3349	C	0.185829	0.810071	0.115073
	C3350	C	0.214119	0.812159	0.134040
	C3351	C	0.243749	0.793710	0.169043
	C3352	C	0.247449	0.771666	0.187734
	C3353	C	0.218894	0.769799	0.168565
	H3354	H	0.162784	0.824553	0.087836
	H3355	H	0.270149	0.757457	0.214724
	C3356	C	0.267345	0.803016	0.180134
	C3357	C	0.217923	0.833808	0.121670
	N3358	N	0.249802	0.827297	0.150289
	O3359	O	0.198314	0.853426	0.093351
	O3360	O	0.295331	0.792700	0.208216
	C3361	C	0.161624	0.781811	0.119925
	C3362	C	0.212423	0.750230	0.179182
	N3363	N	0.176296	0.759865	0.147885
	O3364	O	0.232883	0.730502	0.207989
	O3365	O	0.132747	0.792579	0.091398
	C3366	C	0.019754	0.510833	0.098428
	C3367	C	0.016897	0.508327	0.088351
	C3368	C	0.048313	0.501147	0.106545
	C3369	C	0.080283	0.496772	0.132920
	C3370	C	0.083000	0.499494	0.142784
	C3371	C	0.051571	0.506695	0.124576
	H3372	H	-0.007671	0.511397	0.068222
	H3373	H	0.107852	0.495960	0.163363
	C3374	C	0.108456	0.489139	0.146937
	C3375	C	0.054785	0.496773	0.102527
	N3376	N	0.090839	0.490510	0.126634
	O3377	O	0.034236	0.497967	0.083183
	O3378	O	0.140032	0.482880	0.170718
	C3379	C	-0.007547	0.516865	0.085888
	C3380	C	0.045429	0.510301	0.129279
	N3381	N	0.010240	0.515172	0.106482
	O3382	O	0.065339	0.509789	0.147867
	O3383	O	-0.038464	0.522032	0.063154
	C3384	C	0.431574	0.958258	0.110478
	C3385	C	0.401990	0.956406	0.094062
	C3386	C	0.412255	0.930762	0.113598
	C3387	C	0.449460	0.908492	0.147177
	C3388	C	0.479043	0.910401	0.163533
	C3389	C	0.468841	0.936062	0.144039
	H3390	H	0.373123	0.973647	0.068036
	H3391	H	0.507919	0.893126	0.189614
	C3392	C	0.450123	0.884299	0.160425
	C3393	C	0.387944	0.921673	0.104310
	N3394	N	0.412472	0.893654	0.133652
	O3395	O	0.354453	0.934873	0.077842
	O3396	O	0.476529	0.861467	0.187789
	C3397	C	0.430434	0.982536	0.097034
	C3398	C	0.492877	0.945493	0.153097
	N3399	N	0.467948	0.973466	0.123701
	O3400	O	0.526389	0.932658	0.179444
	O3401	O	0.403766	1.005268	0.069604
	C3402	C	0.326435	0.608193	0.124984
	C3403	C	0.329131	0.594552	0.142660
	C3404	C	0.295636	0.607148	0.120015
	C3405	C	0.261522	0.631269	0.082246
	C3406	C	0.258614	0.644599	0.064504
	C3407	C	0.292374	0.632420	0.087236
	H3408	H	0.355668	0.576002	0.171980
	H3409	H	0.232363	0.663568	0.035252
	C3410	C	0.232189	0.639948	0.066748
	C3411	C	0.289379	0.599658	0.130008
	N3412	N	0.251273	0.620714	0.096947
	O3413	O	0.311633	0.580167	0.159721
	O3414	O	0.199197	0.659365	0.035360
	C3415	C	0.357357	0.602333	0.140831
	C3416	C	0.300420	0.643039	0.077704
	N3417	N	0.340256	0.625119	0.111199
	O3418	O	0.278483	0.663164	0.048064
	O3419	O	0.390394	0.582943	0.172143
	C3420	C	0.386241	0.700734	0.117247
	C3421	C	0.376197	0.723447	0.103087
	C3422	C	0.387132	0.718994	0.121953
	C3423	C	0.408253	0.693326	0.153780
	C3424	C	0.417974	0.670740	0.167752
	C3425	C	0.405758	0.675465	0.148099
	H3426	H	0.360116	0.743296	0.078588
	H3427	H	0.432628	0.651127	0.191318
	C3428	C	0.414194	0.695546	0.166499
	C3429	C	0.377180	0.738799	0.112299
	N3430	N	0.391953	0.723382	0.138771
	O3431	O	0.359476	0.762898	0.087086
	O3432	O	0.432495	0.677865	0.193758
	C3433	C	0.377488	0.697906	0.103354
	C3434	C	0.408523	0.656146	0.154025
	N3435	N	0.391485	0.670670	0.126661
	O3436	O	0.420936	0.633045	0.176319
	O3437	O	0.361568	0.714789	0.077698
	C3438	C	0.155487	0.890279	0.124710
	C3439	C	0.145148	0.901615	0.120935
	C3440	C	0.123642	0.897180	0.116019
	C3441	C	0.112947	0.881429	0.115351
	C3442	C	0.124290	0.870011	0.119799
	C3443	C	0.145364	0.874338	0.124330
	H3444	H	0.096508	0.878125	0.111661
	H3445	H	0.153493	0.865646	0.127270
	H3446	H	0.153124	0.913929	0.121218
	C3447	C	0.263279	0.874880	0.142375
	C3448	C	0.274580	0.882417	0.137220
	C3449	C	0.277808	0.871007	0.136835
	C3450	C	0.270401	0.852381	0.141809
	C3451	C	0.258969	0.845484	0.146606
	C3452	C	0.255101	0.856636	0.146780
	H3453	H	0.273067	0.843605	0.141592
	H3454	H	0.245925	0.851205	0.150270
	H3455	H	0.280417	0.896742	0.133456
	C3456	C	0.114761	0.479182	0.121997
	C3457	C	0.102047	0.477858	0.123859
	C3458	C	0.104122	0.491171	0.125200
	C3459	C	0.118001	0.505957	0.124096
	C3460	C	0.130648	0.506862	0.122383
	C3461	C	0.129400	0.493471	0.121517
	H3462	H	0.118733	0.516752	0.124260
	H3463	H	0.139541	0.494219	0.120442
	H3464	H	0.090497	0.466962	0.123869
	C3465	C	0.391645	0.845364	0.143292
	C3466	C	0.404043	0.861075	0.140627
	C3467	C	0.401037	0.876722	0.137407
	C3468	C	0.386444	0.876625	0.137281
	C3469	C	0.374407	0.860707	0.140115
	C3470	C	0.376548	0.845127	0.142864
	H3471	H	0.384504	0.888649	0.135041
	H3472	H	0.366991	0.833011	0.144909
	H3473	H	0.415539	0.861284	0.140835
	C3474	C	0.223983	0.648443	0.088830
	C3475	C	0.212112	0.634194	0.093638
	C3476	C	0.213058	0.615458	0.099224
	C3477	C	0.225271	0.611004	0.099793
	C3478	C	0.237205	0.625393	0.095186
	C3479	C	0.236815	0.644088	0.089797
	H3480	H	0.226483	0.596230	0.104673
	H3481	H	0.246148	0.655060	0.086277
	H3482	H	0.202952	0.637418	0.093491
	C3483	C	0.331553	0.734949	0.115463
	C3484	C	0.341663	0.745877	0.122210
	C3485	C	0.367458	0.750795	0.132725
	C3486	C	0.384106	0.744172	0.137715
	C3487	C	0.373982	0.732746	0.131477
	C3488	C	0.347452	0.728341	0.119935
	H3489	H	0.404276	0.747731	0.146201
	H3490	H	0.339804	0.719574	0.115083
	H3491	H	0.331179	0.749341	0.120973
	C3492	C	0.222330	0.883968	0.152009
	C3493	C	0.255147	0.870155	0.174622
	C3494	C	0.250927	0.880967	0.156790
	C3495	C	0.216840	0.904635	0.119064
	C3496	C	0.184267	0.918663	0.096555
	C3497	C	0.187950	0.907294	0.114217
	H3498	H	0.281701	0.851857	0.203927
	H3499	H	0.157586	0.936515	0.067335
	C3500	C	0.221795	0.909287	0.109247
	C3501	C	0.278197	0.869084	0.172226
	N3502	N	0.257990	0.885975	0.142133
	O3503	O	0.310313	0.848498	0.203692
	O3504	O	0.200032	0.928157	0.079888
	C3505	C	0.215563	0.876489	0.161624
	C3506	C	0.157859	0.915305	0.098303
	N3507	N	0.175993	0.895265	0.128150
	O3508	O	0.124598	0.934317	0.066745
	O3509	O	0.238044	0.858171	0.191215
	C3510	C	0.099608	0.960560	0.099735
	C3511	C	0.090427	0.963883	0.082544
	C3512	C	0.098700	0.941161	0.096105
	C3513	C	0.114914	0.916725	0.124830
	C3514	C	0.123794	0.913573	0.141804
	C3515	C	0.115953	0.936253	0.128552
	H3516	H	0.078645	0.982641	0.060855
	H3517	H	0.136574	0.894641	0.164199
	C3518	C	0.121728	0.896472	0.133357
	C3519	C	0.094724	0.937506	0.085418
	N3520	N	0.111744	0.909941	0.110543
	O3521	O	0.080755	0.954061	0.060995
	O3522	O	0.132762	0.873628	0.154394
	C3523	C	0.095488	0.980601	0.092468
	C3524	C	0.123331	0.939955	0.141103
	N3525	N	0.111174	0.966858	0.118740
	O3526	O	0.136509	0.923931	0.164892
	O3527	O	0.081762	1.003926	0.069147
	C3528	C	0.318211	0.872700	0.120355
	C3529	C	0.286515	0.882690	0.100797
	C3530	C	0.293486	0.879616	0.116645
	C3531	C	0.329715	0.867151	0.149944
	C3532	C	0.361401	0.857204	0.169490
	C3533	C	0.354345	0.860477	0.153494
	H3534	H	0.258515	0.891991	0.075239
	H3535	H	0.389537	0.847509	0.195342
	C3536	C	0.327348	0.866069	0.159738
	C3537	C	0.266587	0.887220	0.103801
	N3538	N	0.289039	0.877597	0.131569
	O3539	O	0.232720	0.898952	0.075886
	O3540	O	0.352282	0.857504	0.185847
	C3541	C	0.321232	0.872707	0.111533
	C3542	C	0.381591	0.852537	0.166828
	N3543	N	0.359843	0.860698	0.140274
	O3544	O	0.415149	0.841818	0.194077
	O3545	O	0.296698	0.880913	0.085786
	C3546	C	0.181806	0.536240	0.133573
	C3547	C	0.211884	0.537214	0.149931
	C3548	C	0.201939	0.563027	0.128485
	C3549	C	0.164607	0.586306	0.093269
	C3550	C	0.134555	0.585319	0.076962
	C3551	C	0.144408	0.559525	0.098227
	H3552	H	0.240892	0.519198	0.177272
	H3553	H	0.105576	0.603328	0.049644
	C3554	C	0.164195	0.610342	0.078086
	C3555	C	0.226593	0.571318	0.136841
	N3556	N	0.201988	0.599857	0.105133
	O3557	O	0.260342	0.557153	0.164308
	O3558	O	0.137834	0.633919	0.049144
	C3559	C	0.182037	0.512199	0.148289
	C3560	C	0.119393	0.551242	0.089000
	N3561	N	0.143704	0.522751	0.120065
	O3562	O	0.085432	0.565350	0.061123
	O3563	O	0.208629	0.488628	0.177654
	C3564	C	0.398982	0.795729	0.159727
	C3565	C	0.404620	0.772238	0.173754
	C3566	C	0.392830	0.772729	0.156940
	C3567	C	0.376554	0.795175	0.128089
	C3568	C	0.371350	0.818498	0.114400
	C3569	C	0.383028	0.818035	0.131121
	H3570	H	0.416767	0.754974	0.195794
	H3571	H	0.358686	0.836001	0.092032
	C3572	C	0.365949	0.789281	0.115687
	C3573	C	0.393603	0.751537	0.164282
	N3574	N	0.376796	0.762920	0.138396
	O3575	O	0.405831	0.729196	0.187207
	O3576	O	0.351254	0.803391	0.091569
	C3577	C	0.406465	0.802689	0.169857
	C3578	C	0.379576	0.840053	0.121823
	N3579	N	0.393797	0.829601	0.145840
	O3580	O	0.367519	0.862274	0.098938
	O3581	O	0.420183	0.788769	0.193333
	C3582	C	0.260596	0.722471	0.077761
	C3583	C	0.231237	0.723340	0.055080
	C3584	C	0.231999	0.701192	0.070216
	C3585	C	0.259456	0.680107	0.105117
	C3586	C	0.287792	0.679834	0.127146
	C3587	C	0.287979	0.701438	0.112640
	H3588	H	0.210233	0.739491	0.028175
	H3589	H	0.308769	0.663417	0.154082
	C3590	C	0.254658	0.658337	0.114336
	C3591	C	0.208275	0.693809	0.055670
	N3592	N	0.225229	0.667152	0.084471
	O3593	O	0.181080	0.707018	0.026143
	O3594	O	0.272393	0.637103	0.141613
	C3595	C	0.270847	0.741068	0.071924
	C3596	C	0.316797	0.705814	0.130370
	N3597	N	0.305548	0.729263	0.104974
	O3598	O	0.344571	0.692625	0.160053
	O3599	O	0.254066	0.761777	0.045226
	C3600	C	0.028315	0.634205	0.260208
	C3601	C	0.027937	0.620145	0.260376
	C3602	C	0.014863	0.604965	0.262515
	C3603	C	0.003056	0.603301	0.265236
	C3604	C	0.004160	0.617328	0.265461
	C3605	C	0.016439	0.633054	0.262635
	H3606	H	-0.007184	0.591630	0.266711
	H3607	H	0.016408	0.644341	0.261987
	H3608	H	0.037342	0.621165	0.258617
	C3609	C	0.040662	0.687599	0.235821
	C3610	C	0.031540	0.712980	0.216895
	C3611	C	0.061599	0.714111	0.233444
	C3612	C	0.098050	0.691654	0.266206
	C3613	C	0.106932	0.666372	0.284726
	C3614	C	0.077098	0.665048	0.268628
	H3615	H	0.003371	0.730475	0.191530
	H3616	H	0.135134	0.648925	0.310093
	C3617	C	0.123386	0.700010	0.276724
	C3618	C	0.062313	0.737457	0.222005
	N3619	N	0.100458	0.727335	0.249880
	O3620	O	0.036476	0.760205	0.195318
	O3621	O	0.156443	0.686795	0.302452
	C3622	C	0.016097	0.678945	0.227063
	C3623	C	0.077056	0.641102	0.281981
	N3624	N	0.040007	0.650806	0.256354
	O3625	O	0.102545	0.618128	0.308712
	O3626	O	-0.017054	0.692456	0.201070
	C3627	C	-0.002717	0.584653	0.240351
	C3628	C	-0.015259	0.587417	0.221705
	C3629	C	-0.012687	0.565596	0.232250
	C3630	C	0.002027	0.542433	0.260007
	C3631	C	0.013930	0.539884	0.278196
	C3632	C	0.011098	0.561785	0.267481
	H3633	H	-0.025924	0.605257	0.200745
	H3634	H	0.024400	0.522095	0.299011
	C3635	C	0.003052	0.522382	0.266024
	C3636	C	-0.023289	0.561656	0.218350
	N3637	N	-0.012506	0.535174	0.240180
	O3638	O	-0.037909	0.577269	0.193788
	O3639	O	0.015073	0.499644	0.288433
	C3640	C	-0.001836	0.604178	0.235600
	C3641	C	0.021082	0.566023	0.280885
	N3642	N	0.011989	0.591983	0.260198
	O3643	O	0.033934	0.551058	0.304186
	O3644	O	-0.011131	0.626111	0.215059
	C3645	C	0.482359	0.619610	0.276447
	C3646	C	0.486083	0.620669	0.287956
	C3647	C	0.455331	0.626847	0.270837
	C3648	C	0.423405	0.631203	0.244522
	C3649	C	0.419570	0.630284	0.232864
	C3650	C	0.450011	0.624570	0.249508
	H3651	H	0.510930	0.617170	0.308508
	H3652	H	0.394560	0.633952	0.212163
	C3653	C	0.396299	0.637021	0.232286
	C3654	C	0.449306	0.630364	0.275682
	N3655	N	0.413016	0.636966	0.251244
	O3656	O	0.470448	0.628382	0.295843
	O3657	O	0.366336	0.640711	0.210980
	C3658	C	0.509268	0.614129	0.288363
	C3659	C	0.454722	0.623066	0.242654
	N3660	N	0.490865	0.616679	0.266894
	O3661	O	0.432940	0.626303	0.221302
	O3662	O	0.540438	0.608567	0.311442
	C3663	C	0.118851	0.766470	0.254192
	C3664	C	0.105302	0.752574	0.250729
	C3665	C	0.114916	0.741360	0.253890
	C3666	C	0.138213	0.743450	0.261041
	C3667	C	0.151814	0.757110	0.264981
	C3668	C	0.142110	0.768894	0.261314
	H3669	H	0.145492	0.734756	0.263449
	H3670	H	0.152558	0.779585	0.264146
	H3671	H	0.087166	0.751095	0.245009
	C3672	C	-0.021776	0.491135	0.244234
	C3673	C	-0.023179	0.504799	0.243613
	C3674	C	-0.012810	0.521815	0.239364
	C3675	C	-0.001785	0.525540	0.235209
	C3676	C	-0.001231	0.511938	0.235370
	C3677	C	-0.010669	0.494378	0.240368
	H3678	H	0.006321	0.538624	0.232026
	H3679	H	-0.009610	0.483557	0.241060
	H3680	H	-0.032194	0.502224	0.246308
	C3681	C	0.384909	0.658984	0.246555
	C3682	C	0.400404	0.655628	0.248984
	C3683	C	0.396242	0.641391	0.247645
	C3684	C	0.376874	0.630701	0.243894
	C3685	C	0.360678	0.635213	0.240323
	C3686	C	0.364437	0.649317	0.241562
	H3687	H	0.374185	0.619239	0.243588
	H3688	H	0.352502	0.652112	0.239617
	H3689	H	0.415584	0.663696	0.252207
	C3690	C	0.122559	0.791161	0.265674
	C3691	C	0.140672	0.791696	0.284540
	C3692	C	0.124384	0.817261	0.263528
	C3693	C	0.091526	0.840557	0.226067
	C3694	C	0.072950	0.839982	0.207063
	C3695	C	0.089993	0.814518	0.228292
	H3696	H	0.166271	0.773645	0.313623
	H3697	H	0.047830	0.858101	0.178107
	C3698	C	0.083371	0.864444	0.212595
	C3699	C	0.138699	0.825486	0.275410
	N3700	N	0.113709	0.854013	0.243787
	O3701	O	0.166185	0.811336	0.305495
	O3702	O	0.057207	0.887957	0.181928
	C3703	C	0.134426	0.767818	0.280073
	C3704	C	0.080286	0.807037	0.217583
	N3705	N	0.109071	0.779049	0.250161
	O3706	O	0.054278	0.821461	0.187869
	O3707	O	0.160346	0.744261	0.310628
	C3708	C	0.188804	0.788534	0.258245
	C3709	C	0.185769	0.810133	0.239985
	C3710	C	0.214070	0.812209	0.258967
	C3711	C	0.243691	0.793754	0.293969
	C3712	C	0.247371	0.771716	0.312645
	C3713	C	0.218807	0.769861	0.293460
	H3714	H	0.162731	0.824620	0.212749
	H3715	H	0.270065	0.757503	0.339633
	C3716	C	0.267300	0.803047	0.305078
	C3717	C	0.217896	0.833847	0.246619
	N3718	N	0.249774	0.827327	0.275245
	O3719	O	0.198303	0.853465	0.218309
	O3720	O	0.295283	0.792724	0.333164
	C3721	C	0.161529	0.781893	0.244801
	C3722	C	0.212317	0.750300	0.304058
	N3723	N	0.176187	0.759948	0.272751
	O3724	O	0.232766	0.730571	0.332860
	O3725	O	0.132651	0.792672	0.216267
	C3726	C	0.019771	0.510819	0.223447
	C3727	C	0.016919	0.508306	0.213376
	C3728	C	0.048336	0.501123	0.231574
	C3729	C	0.080305	0.496752	0.257945
	C3730	C	0.083017	0.499480	0.267802
	C3731	C	0.051587	0.506684	0.249591
	H3732	H	-0.007648	0.511373	0.193251
	H3733	H	0.107868	0.495948	0.288379
	C3734	C	0.108479	0.489116	0.271965
	C3735	C	0.054814	0.496740	0.227564
	N3736	N	0.090862	0.490485	0.251664
	O3737	O	0.034259	0.497942	0.208212
	O3738	O	0.140055	0.482856	0.295745
	C3739	C	-0.007533	0.516856	0.210902
	C3740	C	0.045440	0.510297	0.254288
	N3741	N	0.010252	0.515167	0.231491
	O3742	O	0.065347	0.509790	0.272871
	O3743	O	-0.038449	0.522021	0.188169
	C3744	C	0.431585	0.958255	0.235486
	C3745	C	0.402001	0.956403	0.219068
	C3746	C	0.412267	0.930759	0.238604
	C3747	C	0.449472	0.908489	0.272185
	C3748	C	0.479056	0.910398	0.288542
	C3749	C	0.468854	0.936058	0.269048
	H3750	H	0.373133	0.973644	0.193040
	H3751	H	0.507932	0.893123	0.314624
	C3752	C	0.450135	0.884296	0.285433
	C3753	C	0.387956	0.921669	0.229316
	N3754	N	0.412482	0.893651	0.258655
	O3755	O	0.354460	0.934873	0.202837
	O3756	O	0.476542	0.861463	0.312798
	C3757	C	0.430444	0.982533	0.222042
	C3758	C	0.492889	0.945490	0.278107
	N3759	N	0.467959	0.973463	0.248710
	O3760	O	0.526402	0.932655	0.304455
	O3761	O	0.403776	1.005265	0.194610
	C3762	C	0.326510	0.608141	0.250063
	C3763	C	0.329209	0.594503	0.267740
	C3764	C	0.295712	0.607095	0.245095
	C3765	C	0.261594	0.631209	0.207324
	C3766	C	0.258683	0.644537	0.189581
	C3767	C	0.292445	0.632362	0.212314
	H3768	H	0.355749	0.575958	0.297060
	H3769	H	0.232428	0.663501	0.160329
	C3770	C	0.232258	0.639886	0.191824
	C3771	C	0.289454	0.599606	0.255087
	N3772	N	0.251345	0.620659	0.222024
	O3773	O	0.311718	0.580129	0.284802
	O3774	O	0.199261	0.659296	0.160436
	C3775	C	0.357431	0.602286	0.265907
	C3776	C	0.300488	0.642983	0.202779
	N3777	N	0.340325	0.625070	0.236271
	O3778	O	0.278547	0.663105	0.173137
	O3779	O	0.390471	0.582900	0.297220
	C3780	C	0.386298	0.700692	0.242312
	C3781	C	0.376257	0.723404	0.228154
	C3782	C	0.387186	0.718951	0.247017
	C3783	C	0.408298	0.693284	0.278839
	C3784	C	0.418017	0.670698	0.292808
	C3785	C	0.405808	0.675424	0.273159
	H3786	H	0.360182	0.743253	0.203658
	H3787	H	0.432664	0.651086	0.316369
	C3788	C	0.414233	0.695504	0.291553
	C3789	C	0.377234	0.738756	0.237363
	N3790	N	0.391997	0.723340	0.263828
	O3791	O	0.359537	0.762854	0.212154
	O3792	O	0.432524	0.677823	0.318807
	C3793	C	0.377548	0.697865	0.228419
	C3794	C	0.408571	0.656107	0.279082
	N3795	N	0.391538	0.670631	0.251721
	O3796	O	0.420979	0.633006	0.301372
	O3797	O	0.361635	0.714747	0.202768
	C3798	C	0.155462	0.890295	0.249680
	C3799	C	0.145136	0.901622	0.245919
	C3800	C	0.123624	0.897190	0.240997
	C3801	C	0.112911	0.881452	0.240308
	C3802	C	0.124241	0.870044	0.244741
	C3803	C	0.145321	0.874367	0.249279
	H3804	H	0.096466	0.878152	0.236612
	H3805	H	0.153442	0.865681	0.252209
	H3806	H	0.153127	0.913926	0.246219
	C3807	C	0.263270	0.874895	0.267358
	C3808	C	0.274579	0.882430	0.262210
	C3809	C	0.277808	0.871024	0.261821
	C3810	C	0.270394	0.852402	0.266787
	C3811	C	0.258952	0.845508	0.271576
	C3812	C	0.255083	0.856656	0.271751
	H3813	H	0.273060	0.843629	0.266568
	H3814	H	0.245901	0.851227	0.275234
	H3815	H	0.280421	0.896753	0.258452
	C3816	C	0.114776	0.479163	0.247017
	C3817	C	0.102064	0.477837	0.248881
	C3818	C	0.104144	0.491147	0.250227
	C3819	C	0.118026	0.505931	0.249126
	C3820	C	0.130671	0.506837	0.247412
	C3821	C	0.129417	0.493451	0.246540
	H3822	H	0.118762	0.516724	0.249294
	H3823	H	0.139557	0.494199	0.245463
	H3824	H	0.090514	0.466942	0.248890
	C3825	C	0.391657	0.845359	0.268300
	C3826	C	0.404055	0.861070	0.265635
	C3827	C	0.401047	0.876720	0.262412
	C3828	C	0.386454	0.876625	0.262283
	C3829	C	0.374417	0.860706	0.265119
	C3830	C	0.376559	0.845124	0.267870
	H3831	H	0.384511	0.888651	0.260040
	H3832	H	0.367003	0.833008	0.269917
	H3833	H	0.415552	0.861277	0.265844
	C3834	C	0.224031	0.648403	0.213881
	C3835	C	0.212162	0.634153	0.218691
	C3836	C	0.213115	0.615414	0.224285
	C3837	C	0.225336	0.610955	0.224862
	C3838	C	0.237270	0.625343	0.220255
	C3839	C	0.236870	0.644043	0.214856
	H3840	H	0.226553	0.596177	0.229748
	H3841	H	0.246202	0.655017	0.211334
	H3842	H	0.202995	0.637383	0.218537
	C3843	C	0.331578	0.734922	0.240498
	C3844	C	0.341685	0.745852	0.247241
	C3845	C	0.367484	0.750768	0.257761
	C3846	C	0.384139	0.744138	0.262760
	C3847	C	0.374020	0.732708	0.256527
	C3848	C	0.347486	0.728307	0.244980
	H3849	H	0.404312	0.747695	0.271250
	H3850	H	0.339840	0.719538	0.240130
	H3851	H	0.331196	0.749320	0.245998
	C3852	C	0.222315	0.883977	0.276990
	C3853	C	0.255131	0.870161	0.299605
	C3854	C	0.250915	0.880974	0.281775
	C3855	C	0.216832	0.904647	0.244048
	C3856	C	0.184259	0.918678	0.221539
	C3857	C	0.187939	0.907308	0.239198
	H3858	H	0.281682	0.851859	0.328909
	H3859	H	0.157581	0.936534	0.192318
	C3860	C	0.221788	0.909299	0.234232
	C3861	C	0.278184	0.869089	0.297210
	N3862	N	0.257982	0.885986	0.267119
	O3863	O	0.310303	0.848508	0.328677
	O3864	O	0.200027	0.928170	0.204874
	C3865	C	0.215544	0.876497	0.286603
	C3866	C	0.157847	0.915322	0.223282
	N3867	N	0.175976	0.895279	0.253127
	O3868	O	0.124587	0.934338	0.191724
	O3869	O	0.238022	0.858175	0.316193
	C3870	C	0.099614	0.960550	0.224744
	C3871	C	0.090428	0.963878	0.207547
	C3872	C	0.098701	0.941158	0.221105
	C3873	C	0.114923	0.916718	0.249836
	C3874	C	0.123808	0.913562	0.266815
	C3875	C	0.115964	0.936241	0.253564
	H3876	H	0.078641	0.982639	0.185855
	H3877	H	0.136593	0.894627	0.289213
	C3878	C	0.121737	0.896468	0.258360
	C3879	C	0.094722	0.937508	0.210413
	N3880	N	0.111737	0.909943	0.235534
	O3881	O	0.080729	0.954069	0.185974
	O3882	O	0.132782	0.873621	0.279404
	C3883	C	0.095495	0.980589	0.217479
	C3884	C	0.123345	0.939939	0.266119
	N3885	N	0.111184	0.966843	0.243755
	O3886	O	0.136525	0.923912	0.289910
	O3887	O	0.081766	1.003915	0.194157
	C3888	C	0.318218	0.872711	0.245351
	C3889	C	0.286521	0.882705	0.225789
	C3890	C	0.293491	0.879633	0.241637
	C3891	C	0.329721	0.867163	0.274939
	C3892	C	0.361409	0.857211	0.294488
	C3893	C	0.354353	0.860484	0.278492
	H3894	H	0.258521	0.892008	0.200230
	H3895	H	0.389546	0.847513	0.320342
	C3896	C	0.327353	0.866082	0.284732
	C3897	C	0.266591	0.887241	0.228789
	N3898	N	0.289042	0.877615	0.256559
	O3899	O	0.232722	0.898978	0.200870
	O3900	O	0.352288	0.857515	0.310842
	C3901	C	0.321240	0.872715	0.236531
	C3902	C	0.381600	0.852540	0.291830
	N3903	N	0.359852	0.860701	0.265276
	O3904	O	0.415158	0.841818	0.319080
	O3905	O	0.296706	0.880921	0.210783
	C3906	C	0.181842	0.536206	0.258614
	C3907	C	0.211923	0.537176	0.274975
	C3908	C	0.201984	0.562987	0.253535
	C3909	C	0.164656	0.586268	0.218323
	C3910	C	0.134600	0.585285	0.202013
	C3911	C	0.144448	0.559493	0.223272
	H3912	H	0.240929	0.519158	0.302313
	H3913	H	0.105624	0.603296	0.174697
	C3914	C	0.164250	0.610302	0.203146
	C3915	C	0.226642	0.571274	0.261895
	N3916	N	0.202042	0.599814	0.230192
	O3917	O	0.260390	0.557107	0.289361
	O3918	O	0.137894	0.633879	0.174209
	C3919	C	0.182066	0.512168	0.273324
	C3920	C	0.119428	0.551214	0.214040
	N3921	N	0.143733	0.522723	0.245100
	O3922	O	0.085467	0.565325	0.186163
	O3923	O	0.208654	0.488596	0.302684
	C3924	C	0.398998	0.795717	0.284745
	C3925	C	0.404641	0.772223	0.298777
	C3926	C	0.392849	0.772712	0.281965
	C3927	C	0.376568	0.795157	0.253110
	C3928	C	0.371358	0.818483	0.239415
	C3929	C	0.383039	0.818022	0.256135
	H3930	H	0.416793	0.754960	0.320821
	H3931	H	0.358689	0.835985	0.217043
	C3932	C	0.365963	0.789259	0.240710
	C3933	C	0.393626	0.751516	0.289312
	N3934	N	0.376817	0.762897	0.263425
	O3935	O	0.405859	0.729174	0.312240
	O3936	O	0.351262	0.803369	0.216589
	C3937	C	0.406484	0.802680	0.294874
	C3938	C	0.379584	0.840043	0.246833
	N3939	N	0.393811	0.829593	0.270853
	O3940	O	0.367522	0.862264	0.223944
	O3941	O	0.420205	0.788761	0.318351
	C3942	C	0.260620	0.722446	0.202791
	C3943	C	0.231269	0.723310	0.180114
	C3944	C	0.232030	0.701162	0.195250
	C3945	C	0.259478	0.680083	0.230145
	C3946	C	0.287803	0.679816	0.252168
	C3947	C	0.287994	0.701419	0.237664
	H3948	H	0.210273	0.739457	0.153214
	H3949	H	0.308772	0.663404	0.279099
	C3950	C	0.254683	0.658312	0.239367
	C3951	C	0.208317	0.693773	0.180712
	N3952	N	0.225267	0.667119	0.209512
	O3953	O	0.181133	0.706975	0.151192
	O3954	O	0.272412	0.637082	0.266641
	C3955	C	0.270873	0.741042	0.196956
	C3956	C	0.316808	0.705797	0.255393
	N3957	N	0.305568	0.729240	0.230002
	O3958	O	0.344573	0.692613	0.285070
	O3959	O	0.254098	0.761748	0.170262
	C3960	C	0.028367	0.634160	0.385272
	C3961	C	0.027987	0.620102	0.385438
	C3962	C	0.014907	0.604926	0.387569
	C3963	C	0.003098	0.603262	0.390289
	C3964	C	0.004202	0.617286	0.390516
	C3965	C	0.016486	0.633010	0.387694
	H3966	H	-0.007146	0.591593	0.391759
	H3967	H	0.016455	0.644296	0.387048
	H3968	H	0.037394	0.621122	0.383680
	C3969	C	0.040736	0.687544	0.360912
	C3970	C	0.031625	0.712920	0.341999
	C3971	C	0.061689	0.714046	0.358554
	C3972	C	0.098135	0.691588	0.391310
	C3973	C	0.107006	0.666310	0.409817
	C3974	C	0.077167	0.664992	0.393713
	H3975	H	0.003461	0.730415	0.316640
	H3976	H	0.135203	0.648863	0.435179
	C3977	C	0.123479	0.699937	0.401837
	C3978	C	0.062415	0.737384	0.347130
	N3979	N	0.100562	0.727258	0.375008
	O3980	O	0.036586	0.760131	0.320453
	O3981	O	0.156533	0.686721	0.427563
	C3982	C	0.016164	0.678894	0.352145
	C3983	C	0.077115	0.641050	0.407054
	N3984	N	0.040065	0.650757	0.381425
	O3985	O	0.102597	0.618078	0.433778
	O3986	O	-0.016985	0.692408	0.326153
	C3987	C	-0.002680	0.584626	0.365392
	C3988	C	-0.015222	0.587394	0.346744
	C3989	C	-0.012660	0.565578	0.357279
	C3990	C	0.002046	0.542414	0.385031
	C3991	C	0.013951	0.539861	0.403223
	C3992	C	0.011128	0.561758	0.392517
	H3993	H	-0.025880	0.605234	0.325789
	H3994	H	0.024414	0.522073	0.424033
	C3995	C	0.003061	0.522369	0.391038
	C3996	C	-0.023262	0.561642	0.343376
	N3997	N	-0.012498	0.535165	0.365191
	O3998	O	-0.037896	0.577261	0.318804
	O3999	O	0.015075	0.499632	0.413441
	C4000	C	-0.001794	0.604147	0.360648
	C4001	C	0.021115	0.565991	0.405926
	N4002	N	0.012029	0.591948	0.385246
	O4003	O	0.033964	0.551025	0.429226
	O4004	O	-0.011085	0.626079	0.340111
	C4005	C	0.482372	0.619593	0.401469
	C4006	C	0.486077	0.620671	0.412955
	C4007	C	0.455322	0.626851	0.395832
	C4008	C	0.423410	0.631188	0.369535
	C4009	C	0.419593	0.630250	0.357899
	C4010	C	0.450037	0.624536	0.374546
	H4011	H	0.510914	0.617187	0.433493
	H4012	H	0.394594	0.633904	0.337211
	C4013	C	0.396297	0.637009	0.357290
	C4014	C	0.449276	0.630388	0.400651
	N4015	N	0.412994	0.636974	0.376225
	O4016	O	0.470411	0.628411	0.420806
	O4017	O	0.366342	0.640687	0.335996
	C4018	C	0.509290	0.614107	0.413394
	C4019	C	0.454763	0.623018	0.367709
	N4020	N	0.490902	0.616640	0.391944
	O4021	O	0.432993	0.626241	0.346372
	O4022	O	0.540454	0.608553	0.436467
	C4023	C	0.118979	0.766376	0.379347
	C4024	C	0.105424	0.752483	0.375878
	C4025	C	0.115031	0.741274	0.379030
	C4026	C	0.138327	0.743366	0.386180
	C4027	C	0.151934	0.757021	0.390127
	C4028	C	0.142237	0.768800	0.386468
	H4029	H	0.145597	0.734677	0.388579
	H4030	H	0.152688	0.779489	0.389304
	H4031	H	0.087288	0.751005	0.370159
	C4032	C	-0.021785	0.491136	0.369227
	C4033	C	-0.023183	0.504797	0.368613
	C4034	C	-0.012810	0.521811	0.364368
	C4035	C	-0.001789	0.525538	0.360209
	C4036	C	-0.001241	0.511940	0.360363
	C4037	C	-0.010683	0.494382	0.365357
	H4038	H	0.006319	0.538621	0.357027
	H4039	H	-0.009627	0.483564	0.366046
	H4040	H	-0.032195	0.502220	0.371310
	C4041	C	0.384857	0.659021	0.371498
	C4042	C	0.400364	0.655655	0.373942
	C4043	C	0.396205	0.641412	0.372608
	C4044	C	0.376827	0.630730	0.368847
	C4045	C	0.360618	0.635255	0.365260
	C4046	C	0.364376	0.649362	0.366495
	H4047	H	0.374140	0.619265	0.368545
	H4048	H	0.352432	0.652166	0.364538
	H4049	H	0.415552	0.663717	0.377172
	C4050	C	0.122673	0.791085	0.390808
	C4051	C	0.140781	0.791632	0.409663
	C4052	C	0.124478	0.817201	0.388637
	C4053	C	0.091611	0.840489	0.351174
	C4054	C	0.073040	0.839902	0.332182
	C4055	C	0.090098	0.814434	0.353425
	H4056	H	0.166386	0.773586	0.438746
	H4057	H	0.047913	0.858015	0.303224
	C4058	C	0.083439	0.864385	0.337684
	C4059	C	0.138782	0.825440	0.400503
	N4060	N	0.113777	0.853966	0.368868
	O4061	O	0.166272	0.811299	0.430584
	O4062	O	0.057263	0.887894	0.307011
	C4063	C	0.134554	0.767735	0.405221
	C4064	C	0.080398	0.806942	0.342727
	N4065	N	0.109197	0.778956	0.375314
	O4066	O	0.054385	0.821358	0.313016
	O4067	O	0.160484	0.744181	0.435782
	C4068	C	0.188884	0.788465	0.383349
	C4069	C	0.185829	0.810071	0.365073
	C4070	C	0.214119	0.812159	0.384040
	C4071	C	0.243749	0.793710	0.419043
	C4072	C	0.247449	0.771666	0.437734
	C4073	C	0.218894	0.769799	0.418565
	H4074	H	0.162784	0.824553	0.337836
	H4075	H	0.270149	0.757457	0.464724
	C4076	C	0.267345	0.803016	0.430134
	C4077	C	0.217923	0.833808	0.371670
	N4078	N	0.249802	0.827297	0.400289
	O4079	O	0.198314	0.853426	0.343351
	O4080	O	0.295331	0.792700	0.458216
	C4081	C	0.161624	0.781811	0.369925
	C4082	C	0.212423	0.750230	0.429182
	N4083	N	0.176296	0.759865	0.397885
	O4084	O	0.232883	0.730502	0.457989
	O4085	O	0.132747	0.792579	0.341398
	C4086	C	0.019754	0.510833	0.348428
	C4087	C	0.016897	0.508327	0.338351
	C4088	C	0.048313	0.501147	0.356545
	C4089	C	0.080283	0.496772	0.382920
	C4090	C	0.083000	0.499494	0.392784
	C4091	C	0.051571	0.506695	0.374576
	H4092	H	-0.007671	0.511397	0.318222
	H4093	H	0.107852	0.495960	0.413363
	C4094	C	0.108456	0.489139	0.396937
	C4095	C	0.054785	0.496773	0.352527
	N4096	N	0.090839	0.490510	0.376634
	O4097	O	0.034236	0.497967	0.333183
	O4098	O	0.140032	0.482880	0.420718
	C4099	C	-0.007547	0.516865	0.335888
	C4100	C	0.045429	0.510301	0.379279
	N4101	N	0.010240	0.515172	0.356482
	O4102	O	0.065339	0.509789	0.397867
	O4103	O	-0.038464	0.522032	0.313154
	C4104	C	0.431574	0.958258	0.360478
	C4105	C	0.401990	0.956406	0.344062
	C4106	C	0.412255	0.930762	0.363598
	C4107	C	0.449460	0.908492	0.397177
	C4108	C	0.479043	0.910401	0.413533
	C4109	C	0.468841	0.936062	0.394039
	H4110	H	0.373123	0.973647	0.318036
	H4111	H	0.507919	0.893126	0.439614
	C4112	C	0.450123	0.884299	0.410425
	C4113	C	0.387944	0.921673	0.354310
	N4114	N	0.412472	0.893654	0.383652
	O4115	O	0.354453	0.934873	0.327842
	O4116	O	0.476529	0.861467	0.437789
	C4117	C	0.430434	0.982536	0.347034
	C4118	C	0.492877	0.945493	0.403097
	N4119	N	0.467948	0.973466	0.373701
	O4120	O	0.526389	0.932658	0.429444
	O4121	O	0.403766	1.005268	0.319604
	C4122	C	0.326435	0.608193	0.374984
	C4123	C	0.329131	0.594552	0.392660
	C4124	C	0.295636	0.607148	0.370015
	C4125	C	0.261522	0.631269	0.332246
	C4126	C	0.258614	0.644599	0.314504
	C4127	C	0.292374	0.632420	0.337236
	H4128	H	0.355668	0.576002	0.421980
	H4129	H	0.232363	0.663568	0.285252
	C4130	C	0.232189	0.639948	0.316748
	C4131	C	0.289379	0.599658	0.380008
	N4132	N	0.251273	0.620714	0.346947
	O4133	O	0.311633	0.580167	0.409721
	O4134	O	0.199197	0.659365	0.285360
	C4135	C	0.357357	0.602333	0.390831
	C4136	C	0.300420	0.643039	0.327704
	N4137	N	0.340256	0.625119	0.361199
	O4138	O	0.278483	0.663164	0.298064
	O4139	O	0.390394	0.582943	0.422143
	C4140	C	0.386241	0.700734	0.367247
	C4141	C	0.376197	0.723447	0.353087
	C4142	C	0.387132	0.718994	0.371953
	C4143	C	0.408253	0.693326	0.403780
	C4144	C	0.417974	0.670740	0.417752
	C4145	C	0.405758	0.675465	0.398099
	H4146	H	0.360116	0.743296	0.328588
	H4147	H	0.432628	0.651127	0.441318
	C4148	C	0.414194	0.695546	0.416499
	C4149	C	0.377180	0.738799	0.362299
	N4150	N	0.391953	0.723382	0.388771
	O4151	O	0.359476	0.762898	0.337086
	O4152	O	0.432495	0.677865	0.443758
	C4153	C	0.377488	0.697906	0.353354
	C4154	C	0.408523	0.656146	0.404025
	N4155	N	0.391485	0.670670	0.376661
	O4156	O	0.420936	0.633045	0.426319
	O4157	O	0.361568	0.714789	0.327698
	C4158	C	0.155487	0.890279	0.374710
	C4159	C	0.145148	0.901615	0.370935
	C4160	C	0.123642	0.897180	0.366019
	C4161	C	0.112947	0.881429	0.365351
	C4162	C	0.124290	0.870011	0.369799
	C4163	C	0.145364	0.874338	0.374330
	H4164	H	0.096508	0.878125	0.361661
	H4165	H	0.153493	0.865646	0.377270
	H4166	H	0.153124	0.913929	0.371218
	C4167	C	0.263279	0.874880	0.392375
	C4168	C	0.274580	0.882417	0.387220
	C4169	C	0.277808	0.871007	0.386835
	C4170	C	0.270401	0.852381	0.391809
	C4171	C	0.258969	0.845484	0.396606
	C4172	C	0.255101	0.856636	0.396780
	H4173	H	0.273067	0.843605	0.391592
	H4174	H	0.245925	0.851205	0.400270
	H4175	H	0.280417	0.896742	0.383456
	C4176	C	0.114761	0.479182	0.371997
	C4177	C	0.102047	0.477858	0.373859
	C4178	C	0.104122	0.491171	0.375200
	C4179	C	0.118001	0.505957	0.374096
	C4180	C	0.130648	0.506862	0.372383
	C4181	C	0.129400	0.493471	0.371517
	H4182	H	0.118733	0.516752	0.374260
	H4183	H	0.139541	0.494219	0.370442
	H4184	H	0.090497	0.466962	0.373869
	C4185	C	0.391645	0.845364	0.393292
	C4186	C	0.404043	0.861075	0.390627
	C4187	C	0.401037	0.876722	0.387407
	C4188	C	0.386444	0.876625	0.387281
	C4189	C	0.374407	0.860707	0.390115
	C4190	C	0.376548	0.845127	0.392864
	H4191	H	0.384504	0.888649	0.385041
	H4192	H	0.366991	0.833011	0.394909
	H4193	H	0.415539	0.861284	0.390835
	C4194	C	0.223983	0.648443	0.338830
	C4195	C	0.212112	0.634194	0.343638
	C4196	C	0.213058	0.615458	0.349224
	C4197	C	0.225271	0.611004	0.349793
	C4198	C	0.237205	0.625393	0.345186
	C4199	C	0.236815	0.644088	0.339797
	H4200	H	0.226483	0.596230	0.354673
	H4201	H	0.246148	0.655060	0.336277
	H4202	H	0.202952	0.637418	0.343491
	C4203	C	0.331553	0.734949	0.365463
	C4204	C	0.341663	0.745877	0.372210
	C4205	C	0.367458	0.750795	0.382725
	C4206	C	0.384106	0.744172	0.387715
	C4207	C	0.373982	0.732746	0.381477
	C4208	C	0.347452	0.728341	0.369935
	H4209	H	0.404276	0.747731	0.396201
	H4210	H	0.339804	0.719574	0.365083
	H4211	H	0.331179	0.749341	0.370973
	C4212	C	0.222330	0.883968	0.402009
	C4213	C	0.255147	0.870155	0.424622
	C4214	C	0.250927	0.880967	0.406790
	C4215	C	0.216840	0.904635	0.369064
	C4216	C	0.184267	0.918663	0.346555
	C4217	C	0.187950	0.907294	0.364217
	H4218	H	0.281701	0.851857	0.453927
	H4219	H	0.157586	0.936515	0.317335
	C4220	C	0.221795	0.909287	0.359247
	C4221	C	0.278197	0.869084	0.422226
	N4222	N	0.257990	0.885975	0.392133
	O4223	O	0.310313	0.848498	0.453692
	O4224	O	0.200032	0.928157	0.329888
	C4225	C	0.215563	0.876489	0.411624
	C4226	C	0.157859	0.915305	0.348303
	N4227	N	0.175993	0.895265	0.378150
	O4228	O	0.124598	0.934317	0.316745
	O4229	O	0.238044	0.858171	0.441215
	C4230	C	0.099608	0.960560	0.349735
	C4231	C	0.090427	0.963883	0.332544
	C4232	C	0.098700	0.941161	0.346105
	C4233	C	0.114914	0.916725	0.374830
	C4234	C	0.123794	0.913573	0.391804
	C4235	C	0.115953	0.936253	0.378552
	H4236	H	0.078645	0.982641	0.310855
	H4237	H	0.136574	0.894641	0.414199
	C4238	C	0.121728	0.896472	0.383357
	C4239	C	0.094724	0.937506	0.335418
	N4240	N	0.111744	0.909941	0.360543
	O4241	O	0.080755	0.954061	0.310995
	O4242	O	0.132762	0.873628	0.404394
	C4243	C	0.095488	0.980601	0.342468
	C4244	C	0.123331	0.939955	0.391103
	N4245	N	0.111174	0.966858	0.368740
	O4246	O	0.136509	0.923931	0.414892
	O4247	O	0.081762	1.003926	0.319147
	C4248	C	0.318211	0.872700	0.370355
	C4249	C	0.286515	0.882690	0.350797
	C4250	C	0.293486	0.879616	0.366645
	C4251	C	0.329715	0.867151	0.399944
	C4252	C	0.361401	0.857204	0.419490
	C4253	C	0.354345	0.860477	0.403494
	H4254	H	0.258515	0.891991	0.325239
	H4255	H	0.389537	0.847509	0.445342
	C4256	C	0.327348	0.866069	0.409738
	C4257	C	0.266587	0.887220	0.353801
	N4258	N	0.289039	0.877597	0.381569
	O4259	O	0.232720	0.898952	0.325886
	O4260	O	0.352282	0.857504	0.435847
	C4261	C	0.321232	0.872707	0.361533
	C4262	C	0.381591	0.852537	0.416828
	N4263	N	0.359843	0.860698	0.390274
	O4264	O	0.415149	0.841818	0.444077
	O4265	O	0.296698	0.880913	0.335786
	C4266	C	0.181806	0.536240	0.383573
	C4267	C	0.211884	0.537214	0.399931
	C4268	C	0.201939	0.563027	0.378485
	C4269	C	0.164607	0.586306	0.343269
	C4270	C	0.134555	0.585319	0.326962
	C4271	C	0.144408	0.559525	0.348227
	H4272	H	0.240892	0.519198	0.427272
	H4273	H	0.105576	0.603328	0.299644
	C4274	C	0.164195	0.610342	0.328086
	C4275	C	0.226593	0.571318	0.386841
	N4276	N	0.201988	0.599857	0.355133
	O4277	O	0.260342	0.557153	0.414308
	O4278	O	0.137834	0.633919	0.299144
	C4279	C	0.182037	0.512199	0.398289
	C4280	C	0.119393	0.551242	0.339000
	N4281	N	0.143704	0.522751	0.370065
	O4282	O	0.085432	0.565350	0.311123
	O4283	O	0.208629	0.488628	0.427654
	C4284	C	0.398982	0.795729	0.409727
	C4285	C	0.404620	0.772238	0.423754
	C4286	C	0.392830	0.772729	0.406940
	C4287	C	0.376554	0.795175	0.378089
	C4288	C	0.371350	0.818498	0.364400
	C4289	C	0.383028	0.818035	0.381121
	H4290	H	0.416767	0.754974	0.445794
	H4291	H	0.358686	0.836001	0.342032
	C4292	C	0.365949	0.789281	0.365687
	C4293	C	0.393603	0.751537	0.414282
	N4294	N	0.376796	0.762920	0.388396
	O4295	O	0.405831	0.729196	0.437207
	O4296	O	0.351254	0.803391	0.341569
	C4297	C	0.406465	0.802689	0.419857
	C4298	C	0.379576	0.840053	0.371823
	N4299	N	0.393797	0.829601	0.395840
	O4300	O	0.367519	0.862274	0.348938
	O4301	O	0.420183	0.788769	0.443333
	C4302	C	0.260596	0.722471	0.327761
	C4303	C	0.231237	0.723340	0.305080
	C4304	C	0.231999	0.701192	0.320216
	C4305	C	0.259456	0.680107	0.355117
	C4306	C	0.287792	0.679834	0.377146
	C4307	C	0.287979	0.701438	0.362640
	H4308	H	0.210233	0.739491	0.278175
	H4309	H	0.308769	0.663417	0.404082
	C4310	C	0.254658	0.658337	0.364336
	C4311	C	0.208275	0.693809	0.305670
	N4312	N	0.225229	0.667152	0.334471
	O4313	O	0.181080	0.707018	0.276143
	O4314	O	0.272393	0.637103	0.391613
	C4315	C	0.270847	0.741068	0.321924
	C4316	C	0.316797	0.705814	0.380370
	N4317	N	0.305548	0.729263	0.354974
	O4318	O	0.344571	0.692625	0.410053
	O4319	O	0.254066	0.761777	0.295226
	C4320	C	0.028315	0.634205	0.510208
	C4321	C	0.027937	0.620145	0.510376
	C4322	C	0.014863	0.604965	0.512515
	C4323	C	0.003056	0.603301	0.515236
	C4324	C	0.004160	0.617328	0.515461
	C4325	C	0.016439	0.633054	0.512635
	H4326	H	-0.007184	0.591630	0.516711
	H4327	H	0.016408	0.644341	0.511987
	H4328	H	0.037342	0.621165	0.508617
	C4329	C	0.040662	0.687599	0.485821
	C4330	C	0.031540	0.712980	0.466895
	C4331	C	0.061599	0.714111	0.483444
	C4332	C	0.098050	0.691654	0.516206
	C4333	C	0.106932	0.666372	0.534726
	C4334	C	0.077098	0.665048	0.518628
	H4335	H	0.003371	0.730475	0.441530
	H4336	H	0.135134	0.648925	0.560093
	C4337	C	0.123386	0.700010	0.526724
	C4338	C	0.062313	0.737457	0.472005
	N4339	N	0.100458	0.727335	0.499880
	O4340	O	0.036476	0.760205	0.445318
	O4341	O	0.156443	0.686795	0.552452
	C4342	C	0.016097	0.678945	0.477063
	C4343	C	0.077056	0.641102	0.531981
	N4344	N	0.040007	0.650806	0.506354
	O4345	O	0.102545	0.618128	0.558712
	O4346	O	-0.017054	0.692456	0.451070
	C4347	C	-0.002717	0.584653	0.490351
	C4348	C	-0.015259	0.587417	0.471705
	C4349	C	-0.012687	0.565596	0.482250
	C4350	C	0.002027	0.542433	0.510007
	C4351	C	0.013930	0.539884	0.528196
	C4352	C	0.011098	0.561785	0.517481
	H4353	H	-0.025924	0.605257	0.450745
	H4354	H	0.024400	0.522095	0.549011
	C4355	C	0.003052	0.522382	0.516024
	C4356	C	-0.023289	0.561656	0.468350
	N4357	N	-0.012506	0.535174	0.490180
	O4358	O	-0.037909	0.577269	0.443788
	O4359	O	0.015073	0.499644	0.538433
	C4360	C	-0.001836	0.604178	0.485600
	C4361	C	0.021082	0.566023	0.530885
	N4362	N	0.011989	0.591983	0.510198
	O4363	O	0.033934	0.551058	0.554186
	O4364	O	-0.011131	0.626111	0.465059
	C4365	C	0.482359	0.619610	0.526447
	C4366	C	0.486083	0.620669	0.537956
	C4367	C	0.455331	0.626847	0.520837
	C4368	C	0.423405	0.631203	0.494522
	C4369	C	0.419570	0.630284	0.482864
	C4370	C	0.450011	0.624570	0.499508
	H4371	H	0.510930	0.617170	0.558508
	H4372	H	0.394560	0.633952	0.462163
	C4373	C	0.396299	0.637021	0.482286
	C4374	C	0.449306	0.630364	0.525682
	N4375	N	0.413016	0.636966	0.501244
	O4376	O	0.470448	0.628382	0.545843
	O4377	O	0.366336	0.640711	0.460980
	C4378	C	0.509268	0.614129	0.538363
	C4379	C	0.454722	0.623066	0.492654
	N4380	N	0.490865	0.616679	0.516894
	O4381	O	0.432940	0.626303	0.471302
	O4382	O	0.540438	0.608567	0.561442
	C4383	C	0.118851	0.766470	0.504192
	C4384	C	0.105302	0.752574	0.500729
	C4385	C	0.114916	0.741360	0.503890
	C4386	C	0.138213	0.743450	0.511041
	C4387	C	0.151814	0.757110	0.514981
	C4388	C	0.142110	0.768894	0.511314
	H4389	H	0.145492	0.734756	0.513449
	H4390	H	0.152558	0.779585	0.514146
	H4391	H	0.087166	0.751095	0.495009
	C4392	C	-0.021776	0.491135	0.494234
	C4393	C	-0.023179	0.504799	0.493613
	C4394	C	-0.012810	0.521815	0.489364
	C4395	C	-0.001785	0.525540	0.485209
	C4396	C	-0.001231	0.511938	0.485370
	C4397	C	-0.010669	0.494378	0.490368
	H4398	H	0.006321	0.538624	0.482026
	H4399	H	-0.009610	0.483557	0.491060
	H4400	H	-0.032194	0.502224	0.496308
	C4401	C	0.384909	0.658984	0.496555
	C4402	C	0.400404	0.655628	0.498984
	C4403	C	0.396242	0.641391	0.497645
	C4404	C	0.376874	0.630701	0.493894
	C4405	C	0.360678	0.635213	0.490323
	C4406	C	0.364437	0.649317	0.491562
	H4407	H	0.374185	0.619239	0.493588
	H4408	H	0.352502	0.652112	0.489617
	H4409	H	0.415584	0.663696	0.502207
	C4410	C	0.122559	0.791161	0.515674
	C4411	C	0.140672	0.791696	0.534540
	C4412	C	0.124384	0.817261	0.513528
	C4413	C	0.091526	0.840557	0.476067
	C4414	C	0.072950	0.839982	0.457063
	C4415	C	0.089993	0.814518	0.478292
	H4416	H	0.166271	0.773645	0.563623
	H4417	H	0.047830	0.858101	0.428107
	C4418	C	0.083371	0.864444	0.462595
	C4419	C	0.138699	0.825486	0.525410
	N4420	N	0.113709	0.854013	0.493787
	O4421	O	0.166185	0.811336	0.555495
	O4422	O	0.057207	0.887957	0.431928
	C4423	C	0.134426	0.767818	0.530073
	C4424	C	0.080286	0.807037	0.467583
	N4425	N	0.109071	0.779049	0.500161
	O4426	O	0.054278	0.821461	0.437869
	O4427	O	0.160346	0.744261	0.560628
	C4428	C	0.188804	0.788534	0.508245
	C4429	C	0.185769	0.810133	0.489985
	C4430	C	0.214070	0.812209	0.508967
	C4431	C	0.243691	0.793754	0.543969
	C4432	C	0.247371	0.771716	0.562645
	C4433	C	0.218807	0.769861	0.543460
	H4434	H	0.162731	0.824620	0.462749
	H4435	H	0.270065	0.757503	0.589633
	C4436	C	0.267300	0.803047	0.555078
	C4437	C	0.217896	0.833847	0.496619
	N4438	N	0.249774	0.827327	0.525245
	O4439	O	0.198303	0.853465	0.468309
	O4440	O	0.295283	0.792724	0.583164
	C4441	C	0.161529	0.781893	0.494801
	C4442	C	0.212317	0.750300	0.554058
	N4443	N	0.176187	0.759948	0.522751
	O4444	O	0.232766	0.730571	0.582860
	O4445	O	0.132651	0.792672	0.466267
	C4446	C	0.019771	0.510819	0.473447
	C4447	C	0.016919	0.508306	0.463376
	C4448	C	0.048336	0.501123	0.481574
	C4449	C	0.080305	0.496752	0.507945
	C4450	C	0.083017	0.499480	0.517802
	C4451	C	0.051587	0.506684	0.499591
	H4452	H	-0.007648	0.511373	0.443251
	H4453	H	0.107868	0.495948	0.538379
	C4454	C	0.108479	0.489116	0.521965
	C4455	C	0.054814	0.496740	0.477564
	N4456	N	0.090862	0.490485	0.501664
	O4457	O	0.034259	0.497942	0.458212
	O4458	O	0.140055	0.482856	0.545745
	C4459	C	-0.007533	0.516856	0.460902
	C4460	C	0.045440	0.510297	0.504288
	N4461	N	0.010252	0.515167	0.481491
	O4462	O	0.065347	0.509790	0.522871
	O4463	O	-0.038449	0.522021	0.438169
	C4464	C	0.431585	0.958255	0.485486
	C4465	C	0.402001	0.956403	0.469068
	C4466	C	0.412267	0.930759	0.488604
	C4467	C	0.449472	0.908489	0.522185
	C4468	C	0.479056	0.910398	0.538542
	C4469	C	0.468854	0.936058	0.519048
	H4470	H	0.373133	0.973644	0.443040
	H4471	H	0.507932	0.893123	0.564624
	C4472	C	0.450135	0.884296	0.535433
	C4473	C	0.387956	0.921669	0.479316
	N4474	N	0.412482	0.893651	0.508655
	O4475	O	0.354460	0.934873	0.452837
	O4476	O	0.476542	0.861463	0.562798
	C4477	C	0.430444	0.982533	0.472042
	C4478	C	0.492889	0.945490	0.528107
	N4479	N	0.467959	0.973463	0.498710
	O4480	O	0.526402	0.932655	0.554455
	O4481	O	0.403776	1.005265	0.444610
	C4482	C	0.326510	0.608141	0.500063
	C4483	C	0.329209	0.594503	0.517740
	C4484	C	0.295712	0.607095	0.495095
	C4485	C	0.261594	0.631209	0.457324
	C4486	C	0.258683	0.644537	0.439581
	C4487	C	0.292445	0.632362	0.462314
	H4488	H	0.355749	0.575958	0.547060
	H4489	H	0.232428	0.663501	0.410329
	C4490	C	0.232258	0.639886	0.441824
	C4491	C	0.289454	0.599606	0.505087
	N4492	N	0.251345	0.620659	0.472024
	O4493	O	0.311718	0.580129	0.534802
	O4494	O	0.199261	0.659296	0.410436
	C4495	C	0.357431	0.602286	0.515907
	C4496	C	0.300488	0.642983	0.452779
	N4497	N	0.340325	0.625070	0.486271
	O4498	O	0.278547	0.663105	0.423137
	O4499	O	0.390471	0.582900	0.547220
	C4500	C	0.386298	0.700692	0.492312
	C4501	C	0.376257	0.723404	0.478154
	C4502	C	0.387186	0.718951	0.497017
	C4503	C	0.408298	0.693284	0.528839
	C4504	C	0.418017	0.670698	0.542808
	C4505	C	0.405808	0.675424	0.523159
	H4506	H	0.360182	0.743253	0.453658
	H4507	H	0.432664	0.651086	0.566369
	C4508	C	0.414233	0.695504	0.541553
	C4509	C	0.377234	0.738756	0.487363
	N4510	N	0.391997	0.723340	0.513828
	O4511	O	0.359537	0.762854	0.462154
	O4512	O	0.432524	0.677823	0.568807
	C4513	C	0.377548	0.697865	0.478419
	C4514	C	0.408571	0.656107	0.529082
	N4515	N	0.391538	0.670631	0.501721
	O4516	O	0.420979	0.633006	0.551372
	O4517	O	0.361635	0.714747	0.452768
	C4518	C	0.155462	0.890295	0.499680
	C4519	C	0.145136	0.901622	0.495919
	C4520	C	0.123624	0.897190	0.490997
	C4521	C	0.112911	0.881452	0.490308
	C4522	C	0.124241	0.870044	0.494741
	C4523	C	0.145321	0.874367	0.499279
	H4524	H	0.096466	0.878152	0.486612
	H4525	H	0.153442	0.865681	0.502209
	H4526	H	0.153127	0.913926	0.496219
	C4527	C	0.263270	0.874895	0.517358
	C4528	C	0.274579	0.882430	0.512210
	C4529	C	0.277808	0.871024	0.511821
	C4530	C	0.270394	0.852402	0.516787
	C4531	C	0.258952	0.845508	0.521576
	C4532	C	0.255083	0.856656	0.521751
	H4533	H	0.273060	0.843629	0.516568
	H4534	H	0.245901	0.851227	0.525234
	H4535	H	0.280421	0.896753	0.508452
	C4536	C	0.114776	0.479163	0.497017
	C4537	C	0.102064	0.477837	0.498881
	C4538	C	0.104144	0.491147	0.500227
	C4539	C	0.118026	0.505931	0.499126
	C4540	C	0.130671	0.506837	0.497412
	C4541	C	0.129417	0.493451	0.496540
	H4542	H	0.118762	0.516724	0.499294
	H4543	H	0.139557	0.494199	0.495463
	H4544	H	0.090514	0.466942	0.498890
	C4545	C	0.391657	0.845359	0.518300
	C4546	C	0.404055	0.861070	0.515635
	C4547	C	0.401047	0.876720	0.512412
	C4548	C	0.386454	0.876625	0.512283
	C4549	C	0.374417	0.860706	0.515119
	C4550	C	0.376559	0.845124	0.517870
	H4551	H	0.384511	0.888651	0.510040
	H4552	H	0.367003	0.833008	0.519917
	H4553	H	0.415552	0.861277	0.515844
	C4554	C	0.224031	0.648403	0.463881
	C4555	C	0.212162	0.634153	0.468691
	C4556	C	0.213115	0.615414	0.474285
	C4557	C	0.225336	0.610955	0.474862
	C4558	C	0.237270	0.625343	0.470255
	C4559	C	0.236870	0.644043	0.464856
	H4560	H	0.226553	0.596177	0.479748
	H4561	H	0.246202	0.655017	0.461334
	H4562	H	0.202995	0.637383	0.468537
	C4563	C	0.331578	0.734922	0.490498
	C4564	C	0.341685	0.745852	0.497241
	C4565	C	0.367484	0.750768	0.507761
	C4566	C	0.384139	0.744138	0.512760
	C4567	C	0.374020	0.732708	0.506527
	C4568	C	0.347486	0.728307	0.494980
	H4569	H	0.404312	0.747695	0.521250
	H4570	H	0.339840	0.719538	0.490130
	H4571	H	0.331196	0.749320	0.495998
	C4572	C	0.222315	0.883977	0.526990
	C4573	C	0.255131	0.870161	0.549605
	C4574	C	0.250915	0.880974	0.531775
	C4575	C	0.216832	0.904647	0.494048
	C4576	C	0.184259	0.918678	0.471539
	C4577	C	0.187939	0.907308	0.489198
	H4578	H	0.281682	0.851859	0.578909
	H4579	H	0.157581	0.936534	0.442318
	C4580	C	0.221788	0.909299	0.484232
	C4581	C	0.278184	0.869089	0.547210
	N4582	N	0.257982	0.885986	0.517119
	O4583	O	0.310303	0.848508	0.578677
	O4584	O	0.200027	0.928170	0.454874
	C4585	C	0.215544	0.876497	0.536603
	C4586	C	0.157847	0.915322	0.473282
	N4587	N	0.175976	0.895279	0.503127
	O4588	O	0.124587	0.934338	0.441724
	O4589	O	0.238022	0.858175	0.566193
	C4590	C	0.099614	0.960550	0.474744
	C4591	C	0.090428	0.963878	0.457547
	C4592	C	0.098701	0.941158	0.471105
	C4593	C	0.114923	0.916718	0.499836
	C4594	C	0.123808	0.913562	0.516815
	C4595	C	0.115964	0.936241	0.503564
	H4596	H	0.078641	0.982639	0.435855
	H4597	H	0.136593	0.894627	0.539213
	C4598	C	0.121737	0.896468	0.508360
	C4599	C	0.094722	0.937508	0.460413
	N4600	N	0.111737	0.909943	0.485534
	O4601	O	0.080729	0.954069	0.435974
	O4602	O	0.132782	0.873621	0.529404
	C4603	C	0.095495	0.980589	0.467479
	C4604	C	0.123345	0.939939	0.516119
	N4605	N	0.111184	0.966843	0.493755
	O4606	O	0.136525	0.923912	0.539910
	O4607	O	0.081766	1.003915	0.444157
	C4608	C	0.318218	0.872711	0.495351
	C4609	C	0.286521	0.882705	0.475789
	C4610	C	0.293491	0.879633	0.491637
	C4611	C	0.329721	0.867163	0.524939
	C4612	C	0.361409	0.857211	0.544488
	C4613	C	0.354353	0.860484	0.528492
	H4614	H	0.258521	0.892008	0.450230
	H4615	H	0.389546	0.847513	0.570342
	C4616	C	0.327353	0.866082	0.534732
	C4617	C	0.266591	0.887241	0.478789
	N4618	N	0.289042	0.877615	0.506559
	O4619	O	0.232722	0.898978	0.450870
	O4620	O	0.352288	0.857515	0.560842
	C4621	C	0.321240	0.872715	0.486531
	C4622	C	0.381600	0.852540	0.541830
	N4623	N	0.359852	0.860701	0.515276
	O4624	O	0.415158	0.841818	0.569080
	O4625	O	0.296706	0.880921	0.460783
	C4626	C	0.181842	0.536206	0.508614
	C4627	C	0.211923	0.537176	0.524975
	C4628	C	0.201984	0.562987	0.503535
	C4629	C	0.164656	0.586268	0.468323
	C4630	C	0.134600	0.585285	0.452013
	C4631	C	0.144448	0.559493	0.473272
	H4632	H	0.240929	0.519158	0.552313
	H4633	H	0.105624	0.603296	0.424697
	C4634	C	0.164250	0.610302	0.453146
	C4635	C	0.226642	0.571274	0.511895
	N4636	N	0.202042	0.599814	0.480192
	O4637	O	0.260390	0.557107	0.539361
	O4638	O	0.137894	0.633879	0.424209
	C4639	C	0.182066	0.512168	0.523324
	C4640	C	0.119428	0.551214	0.464040
	N4641	N	0.143733	0.522723	0.495100
	O4642	O	0.085467	0.565325	0.436163
	O4643	O	0.208654	0.488596	0.552684
	C4644	C	0.398998	0.795717	0.534745
	C4645	C	0.404641	0.772223	0.548777
	C4646	C	0.392849	0.772712	0.531965
	C4647	C	0.376568	0.795157	0.503110
	C4648	C	0.371358	0.818483	0.489415
	C4649	C	0.383039	0.818022	0.506135
	H4650	H	0.416793	0.754960	0.570821
	H4651	H	0.358689	0.835985	0.467043
	C4652	C	0.365963	0.789259	0.490710
	C4653	C	0.393626	0.751516	0.539312
	N4654	N	0.376817	0.762897	0.513425
	O4655	O	0.405859	0.729174	0.562240
	O4656	O	0.351262	0.803369	0.466589
	C4657	C	0.406484	0.802680	0.544874
	C4658	C	0.379584	0.840043	0.496833
	N4659	N	0.393811	0.829593	0.520853
	O4660	O	0.367522	0.862264	0.473944
	O4661	O	0.420205	0.788761	0.568351
	C4662	C	0.260620	0.722446	0.452791
	C4663	C	0.231269	0.723310	0.430114
	C4664	C	0.232030	0.701162	0.445250
	C4665	C	0.259478	0.680083	0.480145
	C4666	C	0.287803	0.679816	0.502168
	C4667	C	0.287994	0.701419	0.487664
	H4668	H	0.210273	0.739457	0.403214
	H4669	H	0.308772	0.663404	0.529099
	C4670	C	0.254683	0.658312	0.489367
	C4671	C	0.208317	0.693773	0.430712
	N4672	N	0.225267	0.667119	0.459512
	O4673	O	0.181133	0.706975	0.401192
	O4674	O	0.272412	0.637082	0.516641
	C4675	C	0.270873	0.741042	0.446956
	C4676	C	0.316808	0.705797	0.505393
	N4677	N	0.305568	0.729240	0.480002
	O4678	O	0.344573	0.692613	0.535070
	O4679	O	0.254098	0.761748	0.420262
	C4680	C	0.028367	0.634160	0.635272
	C4681	C	0.027987	0.620102	0.635438
	C4682	C	0.014907	0.604926	0.637569
	C4683	C	0.003098	0.603262	0.640289
	C4684	C	0.004202	0.617286	0.640516
	C4685	C	0.016486	0.633010	0.637694
	H4686	H	-0.007146	0.591593	0.641759
	H4687	H	0.016455	0.644296	0.637048
	H4688	H	0.037394	0.621122	0.633680
	C4689	C	0.040736	0.687544	0.610912
	C4690	C	0.031625	0.712920	0.591999
	C4691	C	0.061689	0.714046	0.608554
	C4692	C	0.098135	0.691588	0.641310
	C4693	C	0.107006	0.666310	0.659817
	C4694	C	0.077167	0.664992	0.643713
	H4695	H	0.003461	0.730415	0.566640
	H4696	H	0.135203	0.648863	0.685179
	C4697	C	0.123479	0.699937	0.651837
	C4698	C	0.062415	0.737384	0.597130
	N4699	N	0.100562	0.727258	0.625008
	O4700	O	0.036586	0.760131	0.570453
	O4701	O	0.156533	0.686721	0.677563
	C4702	C	0.016164	0.678894	0.602145
	C4703	C	0.077115	0.641050	0.657054
	N4704	N	0.040065	0.650757	0.631425
	O4705	O	0.102597	0.618078	0.683778
	O4706	O	-0.016985	0.692408	0.576153
	C4707	C	-0.002680	0.584626	0.615392
	C4708	C	-0.015222	0.587394	0.596744
	C4709	C	-0.012660	0.565578	0.607279
	C4710	C	0.002046	0.542414	0.635031
	C4711	C	0.013951	0.539861	0.653223
	C4712	C	0.011128	0.561758	0.642517
	H4713	H	-0.025880	0.605234	0.575789
	H4714	H	0.024414	0.522073	0.674033
	C4715	C	0.003061	0.522369	0.641038
	C4716	C	-0.023262	0.561642	0.593376
	N4717	N	-0.012498	0.535165	0.615191
	O4718	O	-0.037896	0.577261	0.568804
	O4719	O	0.015075	0.499632	0.663441
	C4720	C	-0.001794	0.604147	0.610648
	C4721	C	0.021115	0.565991	0.655926
	N4722	N	0.012029	0.591948	0.635246
	O4723	O	0.033964	0.551025	0.679226
	O4724	O	-0.011085	0.626079	0.590111
	C4725	C	0.482372	0.619593	0.651469
	C4726	C	0.486077	0.620671	0.662955
	C4727	C	0.455322	0.626851	0.645832
	C4728	C	0.423410	0.631188	0.619535
	C4729	C	0.419593	0.630250	0.607899
	C4730	C	0.450037	0.624536	0.624546
	H4731	H	0.510914	0.617187	0.683493
	H4732	H	0.394594	0.633904	0.587211
	C4733	C	0.396297	0.637009	0.607290
	C4734	C	0.449276	0.630388	0.650651
	N4735	N	0.412994	0.636974	0.626225
	O4736	O	0.470411	0.628411	0.670806
	O4737	O	0.366342	0.640687	0.585996
	C4738	C	0.509290	0.614107	0.663394
	C4739	C	0.454763	0.623018	0.617709
	N4740	N	0.490902	0.616640	0.641944
	O4741	O	0.432993	0.626241	0.596372
	O4742	O	0.540454	0.608553	0.686467
	C4743	C	0.118979	0.766376	0.629347
	C4744	C	0.105424	0.752483	0.625878
	C4745	C	0.115031	0.741274	0.629030
	C4746	C	0.138327	0.743366	0.636180
	C4747	C	0.151934	0.757021	0.640127
	C4748	C	0.142237	0.768800	0.636468
	H4749	H	0.145597	0.734677	0.638579
	H4750	H	0.152688	0.779489	0.639304
	H4751	H	0.087288	0.751005	0.620159
	C4752	C	-0.021785	0.491136	0.619227
	C4753	C	-0.023183	0.504797	0.618613
	C4754	C	-0.012810	0.521811	0.614368
	C4755	C	-0.001789	0.525538	0.610209
	C4756	C	-0.001241	0.511940	0.610363
	C4757	C	-0.010683	0.494382	0.615357
	H4758	H	0.006319	0.538621	0.607027
	H4759	H	-0.009627	0.483564	0.616046
	H4760	H	-0.032195	0.502220	0.621310
	C4761	C	0.384857	0.659021	0.621498
	C4762	C	0.400364	0.655655	0.623942
	C4763	C	0.396205	0.641412	0.622608
	C4764	C	0.376827	0.630730	0.618847
	C4765	C	0.360618	0.635255	0.615260
	C4766	C	0.364376	0.649362	0.616495
	H4767	H	0.374140	0.619265	0.618545
	H4768	H	0.352432	0.652166	0.614538
	H4769	H	0.415552	0.663717	0.627172
	C4770	C	0.122673	0.791085	0.640808
	C4771	C	0.140781	0.791632	0.659663
	C4772	C	0.124478	0.817201	0.638637
	C4773	C	0.091611	0.840489	0.601174
	C4774	C	0.073040	0.839902	0.582182
	C4775	C	0.090098	0.814434	0.603425
	H4776	H	0.166386	0.773586	0.688746
	H4777	H	0.047913	0.858015	0.553224
	C4778	C	0.083439	0.864385	0.587684
	C4779	C	0.138782	0.825440	0.650503
	N4780	N	0.113777	0.853966	0.618868
	O4781	O	0.166272	0.811299	0.680584
	O4782	O	0.057263	0.887894	0.557011
	C4783	C	0.134554	0.767735	0.655221
	C4784	C	0.080398	0.806942	0.592727
	N4785	N	0.109197	0.778956	0.625314
	O4786	O	0.054385	0.821358	0.563016
	O4787	O	0.160484	0.744181	0.685782
	C4788	C	0.188884	0.788465	0.633349
	C4789	C	0.185829	0.810071	0.615073
	C4790	C	0.214119	0.812159	0.634040
	C4791	C	0.243749	0.793710	0.669043
	C4792	C	0.247449	0.771666	0.687734
	C4793	C	0.218894	0.769799	0.668565
	H4794	H	0.162784	0.824553	0.587836
	H4795	H	0.270149	0.757457	0.714724
	C4796	C	0.267345	0.803016	0.680134
	C4797	C	0.217923	0.833808	0.621670
	N4798	N	0.249802	0.827297	0.650289
	O4799	O	0.198314	0.853426	0.593351
	O4800	O	0.295331	0.792700	0.708216
	C4801	C	0.161624	0.781811	0.619925
	C4802	C	0.212423	0.750230	0.679182
	N4803	N	0.176296	0.759865	0.647885
	O4804	O	0.232883	0.730502	0.707989
	O4805	O	0.132747	0.792579	0.591398
	C4806	C	0.019754	0.510833	0.598428
	C4807	C	0.016897	0.508327	0.588351
	C4808	C	0.048313	0.501147	0.606545
	C4809	C	0.080283	0.496772	0.632920
	C4810	C	0.083000	0.499494	0.642784
	C4811	C	0.051571	0.506695	0.624576
	H4812	H	-0.007671	0.511397	0.568222
	H4813	H	0.107852	0.495960	0.663363
	C4814	C	0.108456	0.489139	0.646937
	C4815	C	0.054785	0.496773	0.602527
	N4816	N	0.090839	0.490510	0.626634
	O4817	O	0.034236	0.497967	0.583183
	O4818	O	0.140032	0.482880	0.670718
	C4819	C	-0.007547	0.516865	0.585888
	C4820	C	0.045429	0.510301	0.629279
	N4821	N	0.010240	0.515172	0.606482
	O4822	O	0.065339	0.509789	0.647867
	O4823	O	-0.038464	0.522032	0.563154
	C4824	C	0.431574	0.958258	0.610478
	C4825	C	0.401990	0.956406	0.594062
	C4826	C	0.412255	0.930762	0.613598
	C4827	C	0.449460	0.908492	0.647177
	C4828	C	0.479043	0.910401	0.663533
	C4829	C	0.468841	0.936062	0.644039
	H4830	H	0.373123	0.973647	0.568036
	H4831	H	0.507919	0.893126	0.689614
	C4832	C	0.450123	0.884299	0.660425
	C4833	C	0.387944	0.921673	0.604310
	N4834	N	0.412472	0.893654	0.633652
	O4835	O	0.354453	0.934873	0.577842
	O4836	O	0.476529	0.861467	0.687789
	C4837	C	0.430434	0.982536	0.597034
	C4838	C	0.492877	0.945493	0.653097
	N4839	N	0.467948	0.973466	0.623701
	O4840	O	0.526389	0.932658	0.679444
	O4841	O	0.403766	1.005268	0.569604
	C4842	C	0.326435	0.608193	0.624984
	C4843	C	0.329131	0.594552	0.642660
	C4844	C	0.295636	0.607148	0.620015
	C4845	C	0.261522	0.631269	0.582246
	C4846	C	0.258614	0.644599	0.564504
	C4847	C	0.292374	0.632420	0.587236
	H4848	H	0.355668	0.576002	0.671980
	H4849	H	0.232363	0.663568	0.535252
	C4850	C	0.232189	0.639948	0.566748
	C4851	C	0.289379	0.599658	0.630008
	N4852	N	0.251273	0.620714	0.596947
	O4853	O	0.311633	0.580167	0.659721
	O4854	O	0.199197	0.659365	0.535360
	C4855	C	0.357357	0.602333	0.640831
	C4856	C	0.300420	0.643039	0.577704
	N4857	N	0.340256	0.625119	0.611199
	O4858	O	0.278483	0.663164	0.548064
	O4859	O	0.390394	0.582943	0.672143
	C4860	C	0.386241	0.700734	0.617247
	C4861	C	0.376197	0.723447	0.603087
	C4862	C	0.387132	0.718994	0.621953
	C4863	C	0.408253	0.693326	0.653780
	C4864	C	0.417974	0.670740	0.667752
	C4865	C	0.405758	0.675465	0.648099
	H4866	H	0.360116	0.743296	0.578588
	H4867	H	0.432628	0.651127	0.691318
	C4868	C	0.414194	0.695546	0.666499
	C4869	C	0.377180	0.738799	0.612299
	N4870	N	0.391953	0.723382	0.638771
	O4871	O	0.359476	0.762898	0.587086
	O4872	O	0.432495	0.677865	0.693758
	C4873	C	0.377488	0.697906	0.603354
	C4874	C	0.408523	0.656146	0.654025
	N4875	N	0.391485	0.670670	0.626661
	O4876	O	0.420936	0.633045	0.676319
	O4877	O	0.361568	0.714789	0.577698
	C4878	C	0.155487	0.890279	0.624710
	C4879	C	0.145148	0.901615	0.620935
	C4880	C	0.123642	0.897180	0.616019
	C4881	C	0.112947	0.881429	0.615351
	C4882	C	0.124290	0.870011	0.619799
	C4883	C	0.145364	0.874338	0.624330
	H4884	H	0.096508	0.878125	0.611661
	H4885	H	0.153493	0.865646	0.627270
	H4886	H	0.153124	0.913929	0.621218
	C4887	C	0.263279	0.874880	0.642375
	C4888	C	0.274580	0.882417	0.637220
	C4889	C	0.277808	0.871007	0.636835
	C4890	C	0.270401	0.852381	0.641809
	C4891	C	0.258969	0.845484	0.646606
	C4892	C	0.255101	0.856636	0.646780
	H4893	H	0.273067	0.843605	0.641592
	H4894	H	0.245925	0.851205	0.650270
	H4895	H	0.280417	0.896742	0.633456
	C4896	C	0.114761	0.479182	0.621997
	C4897	C	0.102047	0.477858	0.623859
	C4898	C	0.104122	0.491171	0.625200
	C4899	C	0.118001	0.505957	0.624096
	C4900	C	0.130648	0.506862	0.622383
	C4901	C	0.129400	0.493471	0.621517
	H4902	H	0.118733	0.516752	0.624260
	H4903	H	0.139541	0.494219	0.620442
	H4904	H	0.090497	0.466962	0.623869
	C4905	C	0.391645	0.845364	0.643292
	C4906	C	0.404043	0.861075	0.640627
	C4907	C	0.401037	0.876722	0.637407
	C4908	C	0.386444	0.876625	0.637281
	C4909	C	0.374407	0.860707	0.640115
	C4910	C	0.376548	0.845127	0.642864
	H4911	H	0.384504	0.888649	0.635041
	H4912	H	0.366991	0.833011	0.644909
	H4913	H	0.415539	0.861284	0.640835
	C4914	C	0.223983	0.648443	0.588830
	C4915	C	0.212112	0.634194	0.593638
	C4916	C	0.213058	0.615458	0.599224
	C4917	C	0.225271	0.611004	0.599793
	C4918	C	0.237205	0.625393	0.595186
	C4919	C	0.236815	0.644088	0.589797
	H4920	H	0.226483	0.596230	0.604673
	H4921	H	0.246148	0.655060	0.586277
	H4922	H	0.202952	0.637418	0.593491
	C4923	C	0.331553	0.734949	0.615463
	C4924	C	0.341663	0.745877	0.622210
	C4925	C	0.367458	0.750795	0.632725
	C4926	C	0.384106	0.744172	0.637715
	C4927	C	0.373982	0.732746	0.631477
	C4928	C	0.347452	0.728341	0.619935
	H4929	H	0.404276	0.747731	0.646201
	H4930	H	0.339804	0.719574	0.615083
	H4931	H	0.331179	0.749341	0.620973
	C4932	C	0.222330	0.883968	0.652009
	C4933	C	0.255147	0.870155	0.674622
	C4934	C	0.250927	0.880967	0.656790
	C4935	C	0.216840	0.904635	0.619064
	C4936	C	0.184267	0.918663	0.596555
	C4937	C	0.187950	0.907294	0.614217
	H4938	H	0.281701	0.851857	0.703927
	H4939	H	0.157586	0.936515	0.567335
	C4940	C	0.221795	0.909287	0.609247
	C4941	C	0.278197	0.869084	0.672226
	N4942	N	0.257990	0.885975	0.642133
	O4943	O	0.310313	0.848498	0.703692
	O4944	O	0.200032	0.928157	0.579888
	C4945	C	0.215563	0.876489	0.661624
	C4946	C	0.157859	0.915305	0.598303
	N4947	N	0.175993	0.895265	0.628150
	O4948	O	0.124598	0.934317	0.566745
	O4949	O	0.238044	0.858171	0.691215
	C4950	C	0.099608	0.960560	0.599735
	C4951	C	0.090427	0.963883	0.582544
	C4952	C	0.098700	0.941161	0.596105
	C4953	C	0.114914	0.916725	0.624830
	C4954	C	0.123794	0.913573	0.641804
	C4955	C	0.115953	0.936253	0.628552
	H4956	H	0.078645	0.982641	0.560855
	H4957	H	0.136574	0.894641	0.664199
	C4958	C	0.121728	0.896472	0.633357
	C4959	C	0.094724	0.937506	0.585418
	N4960	N	0.111744	0.909941	0.610543
	O4961	O	0.080755	0.954061	0.560995
	O4962	O	0.132762	0.873628	0.654394
	C4963	C	0.095488	0.980601	0.592468
	C4964	C	0.123331	0.939955	0.641103
	N4965	N	0.111174	0.966858	0.618740
	O4966	O	0.136509	0.923931	0.664892
	O4967	O	0.081762	1.003926	0.569147
	C4968	C	0.318211	0.872700	0.620355
	C4969	C	0.286515	0.882690	0.600797
	C4970	C	0.293486	0.879616	0.616645
	C4971	C	0.329715	0.867151	0.649944
	C4972	C	0.361401	0.857204	0.669490
	C4973	C	0.354345	0.860477	0.653494
	H4974	H	0.258515	0.891991	0.575239
	H4975	H	0.389537	0.847509	0.695342
	C4976	C	0.327348	0.866069	0.659738
	C4977	C	0.266587	0.887220	0.603801
	N4978	N	0.289039	0.877597	0.631569
	O4979	O	0.232720	0.898952	0.575886
	O4980	O	0.352282	0.857504	0.685847
	C4981	C	0.321232	0.872707	0.611533
	C4982	C	0.381591	0.852537	0.666828
	N4983	N	0.359843	0.860698	0.640274
	O4984	O	0.415149	0.841818	0.694077
	O4985	O	0.296698	0.880913	0.585786
	C4986	C	0.181806	0.536240	0.633573
	C4987	C	0.211884	0.537214	0.649931
	C4988	C	0.201939	0.563027	0.628485
	C4989	C	0.164607	0.586306	0.593269
	C4990	C	0.134555	0.585319	0.576962
	C4991	C	0.144408	0.559525	0.598227
	H4992	H	0.240892	0.519198	0.677272
	H4993	H	0.105576	0.603328	0.549644
	C4994	C	0.164195	0.610342	0.578086
	C4995	C	0.226593	0.571318	0.636841
	N4996	N	0.201988	0.599857	0.605133
	O4997	O	0.260342	0.557153	0.664308
	O4998	O	0.137834	0.633919	0.549144
	C4999	C	0.182037	0.512199	0.648289
	C5000	C	0.119393	0.551242	0.589000
	N5001	N	0.143704	0.522751	0.620065
	O5002	O	0.085432	0.565350	0.561123
	O5003	O	0.208629	0.488628	0.677654
	C5004	C	0.398982	0.795729	0.659727
	C5005	C	0.404620	0.772238	0.673754
	C5006	C	0.392830	0.772729	0.656940
	C5007	C	0.376554	0.795175	0.628089
	C5008	C	0.371350	0.818498	0.614400
	C5009	C	0.383028	0.818035	0.631121
	H5010	H	0.416767	0.754974	0.695794
	H5011	H	0.358686	0.836001	0.592032
	C5012	C	0.365949	0.789281	0.615687
	C5013	C	0.393603	0.751537	0.664282
	N5014	N	0.376796	0.762920	0.638396
	O5015	O	0.405831	0.729196	0.687207
	O5016	O	0.351254	0.803391	0.591569
	C5017	C	0.406465	0.802689	0.669857
	C5018	C	0.379576	0.840053	0.621823
	N5019	N	0.393797	0.829601	0.645840
	O5020	O	0.367519	0.862274	0.598938
	O5021	O	0.420183	0.788769	0.693333
	C5022	C	0.260596	0.722471	0.577761
	C5023	C	0.231237	0.723340	0.555080
	C5024	C	0.231999	0.701192	0.570216
	C5025	C	0.259456	0.680107	0.605117
	C5026	C	0.287792	0.679834	0.627146
	C5027	C	0.287979	0.701438	0.612640
	H5028	H	0.210233	0.739491	0.528175
	H5029	H	0.308769	0.663417	0.654082
	C5030	C	0.254658	0.658337	0.614336
	C5031	C	0.208275	0.693809	0.555670
	N5032	N	0.225229	0.667152	0.584471
	O5033	O	0.181080	0.707018	0.526143
	O5034	O	0.272393	0.637103	0.641613
	C5035	C	0.270847	0.741068	0.571924
	C5036	C	0.316797	0.705814	0.630370
	N5037	N	0.305548	0.729263	0.604974
	O5038	O	0.344571	0.692625	0.660053
	O5039	O	0.254066	0.761777	0.545226
	C5040	C	0.028315	0.634205	0.760208
	C5041	C	0.027937	0.620145	0.760376
	C5042	C	0.014863	0.604965	0.762515
	C5043	C	0.003056	0.603301	0.765236
	C5044	C	0.004160	0.617328	0.765461
	C5045	C	0.016439	0.633054	0.762635
	H5046	H	-0.007184	0.591630	0.766711
	H5047	H	0.016408	0.644341	0.761987
	H5048	H	0.037342	0.621165	0.758617
	C5049	C	0.040662	0.687599	0.735821
	C5050	C	0.031540	0.712980	0.716895
	C5051	C	0.061599	0.714111	0.733444
	C5052	C	0.098050	0.691654	0.766206
	C5053	C	0.106932	0.666372	0.784726
	C5054	C	0.077098	0.665048	0.768628
	H5055	H	0.003371	0.730475	0.691530
	H5056	H	0.135134	0.648925	0.810093
	C5057	C	0.123386	0.700010	0.776724
	C5058	C	0.062313	0.737457	0.722005
	N5059	N	0.100458	0.727335	0.749880
	O5060	O	0.036476	0.760205	0.695318
	O5061	O	0.156443	0.686795	0.802452
	C5062	C	0.016097	0.678945	0.727063
	C5063	C	0.077056	0.641102	0.781981
	N5064	N	0.040007	0.650806	0.756354
	O5065	O	0.102545	0.618128	0.808712
	O5066	O	-0.017054	0.692456	0.701070
	C5067	C	-0.002717	0.584653	0.740351
	C5068	C	-0.015259	0.587417	0.721705
	C5069	C	-0.012687	0.565596	0.732250
	C5070	C	0.002027	0.542433	0.760007
	C5071	C	0.013930	0.539884	0.778196
	C5072	C	0.011098	0.561785	0.767481
	H5073	H	-0.025924	0.605257	0.700745
	H5074	H	0.024400	0.522095	0.799011
	C5075	C	0.003052	0.522382	0.766024
	C5076	C	-0.023289	0.561656	0.718350
	N5077	N	-0.012506	0.535174	0.740180
	O5078	O	-0.037909	0.577269	0.693788
	O5079	O	0.015073	0.499644	0.788433
	C5080	C	-0.001836	0.604178	0.735600
	C5081	C	0.021082	0.566023	0.780885
	N5082	N	0.011989	0.591983	0.760198
	O5083	O	0.033934	0.551058	0.804186
	O5084	O	-0.011131	0.626111	0.715059
	C5085	C	0.482359	0.619610	0.776447
	C5086	C	0.486083	0.620669	0.787956
	C5087	C	0.455331	0.626847	0.770837
	C5088	C	0.423405	0.631203	0.744522
	C5089	C	0.419570	0.630284	0.732864
	C5090	C	0.450011	0.624570	0.749508
	H5091	H	0.510930	0.617170	0.808508
	H5092	H	0.394560	0.633952	0.712163
	C5093	C	0.396299	0.637021	0.732286
	C5094	C	0.449306	0.630364	0.775682
	N5095	N	0.413016	0.636966	0.751244
	O5096	O	0.470448	0.628382	0.795843
	O5097	O	0.366336	0.640711	0.710980
	C5098	C	0.509268	0.614129	0.788363
	C5099	C	0.454722	0.623066	0.742654
	N5100	N	0.490865	0.616679	0.766894
	O5101	O	0.432940	0.626303	0.721302
	O5102	O	0.540438	0.608567	0.811442
	C5103	C	0.118851	0.766470	0.754192
	C5104	C	0.105302	0.752574	0.750729
	C5105	C	0.114916	0.741360	0.753890
	C5106	C	0.138213	0.743450	0.761041
	C5107	C	0.151814	0.757110	0.764981
	C5108	C	0.142110	0.768894	0.761314
	H5109	H	0.145492	0.734756	0.763449
	H5110	H	0.152558	0.779585	0.764146
	H5111	H	0.087166	0.751095	0.745009
	C5112	C	-0.021776	0.491135	0.744234
	C5113	C	-0.023179	0.504799	0.743613
	C5114	C	-0.012810	0.521815	0.739364
	C5115	C	-0.001785	0.525540	0.735209
	C5116	C	-0.001231	0.511938	0.735370
	C5117	C	-0.010669	0.494378	0.740368
	H5118	H	0.006321	0.538624	0.732026
	H5119	H	-0.009610	0.483557	0.741060
	H5120	H	-0.032194	0.502224	0.746308
	C5121	C	0.384909	0.658984	0.746555
	C5122	C	0.400404	0.655628	0.748984
	C5123	C	0.396242	0.641391	0.747645
	C5124	C	0.376874	0.630701	0.743894
	C5125	C	0.360678	0.635213	0.740323
	C5126	C	0.364437	0.649317	0.741562
	H5127	H	0.374185	0.619239	0.743588
	H5128	H	0.352502	0.652112	0.739617
	H5129	H	0.415584	0.663696	0.752207
	C5130	C	0.122559	0.791161	0.765674
	C5131	C	0.140672	0.791696	0.784540
	C5132	C	0.124384	0.817261	0.763528
	C5133	C	0.091526	0.840557	0.726067
	C5134	C	0.072950	0.839982	0.707063
	C5135	C	0.089993	0.814518	0.728292
	H5136	H	0.166271	0.773645	0.813623
	H5137	H	0.047830	0.858101	0.678107
	C5138	C	0.083371	0.864444	0.712595
	C5139	C	0.138699	0.825486	0.775410
	N5140	N	0.113709	0.854013	0.743787
	O5141	O	0.166185	0.811336	0.805495
	O5142	O	0.057207	0.887957	0.681928
	C5143	C	0.134426	0.767818	0.780073
	C5144	C	0.080286	0.807037	0.717583
	N5145	N	0.109071	0.779049	0.750161
	O5146	O	0.054278	0.821461	0.687869
	O5147	O	0.160346	0.744261	0.810628
	C5148	C	0.188804	0.788534	0.758245
	C5149	C	0.185769	0.810133	0.739985
	C5150	C	0.214070	0.812209	0.758967
	C5151	C	0.243691	0.793754	0.793969
	C5152	C	0.247371	0.771716	0.812645
	C5153	C	0.218807	0.769861	0.793460
	H5154	H	0.162731	0.824620	0.712749
	H5155	H	0.270065	0.757503	0.839633
	C5156	C	0.267300	0.803047	0.805078
	C5157	C	0.217896	0.833847	0.746619
	N5158	N	0.249774	0.827327	0.775245
	O5159	O	0.198303	0.853465	0.718309
	O5160	O	0.295283	0.792724	0.833164
	C5161	C	0.161529	0.781893	0.744801
	C5162	C	0.212317	0.750300	0.804058
	N5163	N	0.176187	0.759948	0.772751
	O5164	O	0.232766	0.730571	0.832860
	O5165	O	0.132651	0.792672	0.716267
	C5166	C	0.019771	0.510819	0.723447
	C5167	C	0.016919	0.508306	0.713376
	C5168	C	0.048336	0.501123	0.731574
	C5169	C	0.080305	0.496752	0.757945
	C5170	C	0.083017	0.499480	0.767802
	C5171	C	0.051587	0.506684	0.749591
	H5172	H	-0.007648	0.511373	0.693251
	H5173	H	0.107868	0.495948	0.788379
	C5174	C	0.108479	0.489116	0.771965
	C5175	C	0.054814	0.496740	0.727564
	N5176	N	0.090862	0.490485	0.751664
	O5177	O	0.034259	0.497942	0.708212
	O5178	O	0.140055	0.482856	0.795745
	C5179	C	-0.007533	0.516856	0.710902
	C5180	C	0.045440	0.510297	0.754288
	N5181	N	0.010252	0.515167	0.731491
	O5182	O	0.065347	0.509790	0.772871
	O5183	O	-0.038449	0.522021	0.688169
	C5184	C	0.431585	0.958255	0.735486
	C5185	C	0.402001	0.956403	0.719068
	C5186	C	0.412267	0.930759	0.738604
	C5187	C	0.449472	0.908489	0.772185
	C5188	C	0.479056	0.910398	0.788542
	C5189	C	0.468854	0.936058	0.769048
	H5190	H	0.373133	0.973644	0.693040
	H5191	H	0.507932	0.893123	0.814624
	C5192	C	0.450135	0.884296	0.785433
	C5193	C	0.387956	0.921669	0.729316
	N5194	N	0.412482	0.893651	0.758655
	O5195	O	0.354460	0.934873	0.702837
	O5196	O	0.476542	0.861463	0.812798
	C5197	C	0.430444	0.982533	0.722042
	C5198	C	0.492889	0.945490	0.778107
	N5199	N	0.467959	0.973463	0.748710
	O5200	O	0.526402	0.932655	0.804455
	O5201	O	0.403776	1.005265	0.694610
	C5202	C	0.326510	0.608141	0.750063
	C5203	C	0.329209	0.594503	0.767740
	C5204	C	0.295712	0.607095	0.745095
	C5205	C	0.261594	0.631209	0.707324
	C5206	C	0.258683	0.644537	0.689581
	C5207	C	0.292445	0.632362	0.712314
	H5208	H	0.355749	0.575958	0.797060
	H5209	H	0.232428	0.663501	0.660329
	C5210	C	0.232258	0.639886	0.691824
	C5211	C	0.289454	0.599606	0.755087
	N5212	N	0.251345	0.620659	0.722024
	O5213	O	0.311718	0.580129	0.784802
	O5214	O	0.199261	0.659296	0.660436
	C5215	C	0.357431	0.602286	0.765907
	C5216	C	0.300488	0.642983	0.702779
	N5217	N	0.340325	0.625070	0.736271
	O5218	O	0.278547	0.663105	0.673137
	O5219	O	0.390471	0.582900	0.797220
	C5220	C	0.386298	0.700692	0.742312
	C5221	C	0.376257	0.723404	0.728154
	C5222	C	0.387186	0.718951	0.747017
	C5223	C	0.408298	0.693284	0.778839
	C5224	C	0.418017	0.670698	0.792808
	C5225	C	0.405808	0.675424	0.773159
	H5226	H	0.360182	0.743253	0.703658
	H5227	H	0.432664	0.651086	0.816369
	C5228	C	0.414233	0.695504	0.791553
	C5229	C	0.377234	0.738756	0.737363
	N5230	N	0.391997	0.723340	0.763828
	O5231	O	0.359537	0.762854	0.712154
	O5232	O	0.432524	0.677823	0.818807
	C5233	C	0.377548	0.697865	0.728419
	C5234	C	0.408571	0.656107	0.779082
	N5235	N	0.391538	0.670631	0.751721
	O5236	O	0.420979	0.633006	0.801372
	O5237	O	0.361635	0.714747	0.702768
	C5238	C	0.155462	0.890295	0.749680
	C5239	C	0.145136	0.901622	0.745919
	C5240	C	0.123624	0.897190	0.740997
	C5241	C	0.112911	0.881452	0.740308
	C5242	C	0.124241	0.870044	0.744741
	C5243	C	0.145321	0.874367	0.749279
	H5244	H	0.096466	0.878152	0.736612
	H5245	H	0.153442	0.865681	0.752209
	H5246	H	0.153127	0.913926	0.746219
	C5247	C	0.263270	0.874895	0.767358
	C5248	C	0.274579	0.882430	0.762210
	C5249	C	0.277808	0.871024	0.761821
	C5250	C	0.270394	0.852402	0.766787
	C5251	C	0.258952	0.845508	0.771576
	C5252	C	0.255083	0.856656	0.771751
	H5253	H	0.273060	0.843629	0.766568
	H5254	H	0.245901	0.851227	0.775234
	H5255	H	0.280421	0.896753	0.758452
	C5256	C	0.114776	0.479163	0.747017
	C5257	C	0.102064	0.477837	0.748881
	C5258	C	0.104144	0.491147	0.750227
	C5259	C	0.118026	0.505931	0.749126
	C5260	C	0.130671	0.506837	0.747412
	C5261	C	0.129417	0.493451	0.746540
	H5262	H	0.118762	0.516724	0.749294
	H5263	H	0.139557	0.494199	0.745463
	H5264	H	0.090514	0.466942	0.748890
	C5265	C	0.391657	0.845359	0.768300
	C5266	C	0.404055	0.861070	0.765635
	C5267	C	0.401047	0.876720	0.762412
	C5268	C	0.386454	0.876625	0.762283
	C5269	C	0.374417	0.860706	0.765119
	C5270	C	0.376559	0.845124	0.767870
	H5271	H	0.384511	0.888651	0.760040
	H5272	H	0.367003	0.833008	0.769917
	H5273	H	0.415552	0.861277	0.765844
	C5274	C	0.224031	0.648403	0.713881
	C5275	C	0.212162	0.634153	0.718691
	C5276	C	0.213115	0.615414	0.724285
	C5277	C	0.225336	0.610955	0.724862
	C5278	C	0.237270	0.625343	0.720255
	C5279	C	0.236870	0.644043	0.714856
	H5280	H	0.226553	0.596177	0.729748
	H5281	H	0.246202	0.655017	0.711334
	H5282	H	0.202995	0.637383	0.718537
	C5283	C	0.331578	0.734922	0.740498
	C5284	C	0.341685	0.745852	0.747241
	C5285	C	0.367484	0.750768	0.757761
	C5286	C	0.384139	0.744138	0.762760
	C5287	C	0.374020	0.732708	0.756527
	C5288	C	0.347486	0.728307	0.744980
	H5289	H	0.404312	0.747695	0.771250
	H5290	H	0.339840	0.719538	0.740130
	H5291	H	0.331196	0.749320	0.745998
	C5292	C	0.222315	0.883977	0.776990
	C5293	C	0.255131	0.870161	0.799605
	C5294	C	0.250915	0.880974	0.781775
	C5295	C	0.216832	0.904647	0.744048
	C5296	C	0.184259	0.918678	0.721539
	C5297	C	0.187939	0.907308	0.739198
	H5298	H	0.281682	0.851859	0.828909
	H5299	H	0.157581	0.936534	0.692318
	C5300	C	0.221788	0.909299	0.734232
	C5301	C	0.278184	0.869089	0.797210
	N5302	N	0.257982	0.885986	0.767119
	O5303	O	0.310303	0.848508	0.828677
	O5304	O	0.200027	0.928170	0.704874
	C5305	C	0.215544	0.876497	0.786603
	C5306	C	0.157847	0.915322	0.723282
	N5307	N	0.175976	0.895279	0.753127
	O5308	O	0.124587	0.934338	0.691724
	O5309	O	0.238022	0.858175	0.816193
	C5310	C	0.099614	0.960550	0.724744
	C5311	C	0.090428	0.963878	0.707547
	C5312	C	0.098701	0.941158	0.721105
	C5313	C	0.114923	0.916718	0.749836
	C5314	C	0.123808	0.913562	0.766815
	C5315	C	0.115964	0.936241	0.753564
	H5316	H	0.078641	0.982639	0.685855
	H5317	H	0.136593	0.894627	0.789213
	C5318	C	0.121737	0.896468	0.758360
	C5319	C	0.094722	0.937508	0.710413
	N5320	N	0.111737	0.909943	0.735534
	O5321	O	0.080729	0.954069	0.685974
	O5322	O	0.132782	0.873621	0.779404
	C5323	C	0.095495	0.980589	0.717479
	C5324	C	0.123345	0.939939	0.766119
	N5325	N	0.111184	0.966843	0.743755
	O5326	O	0.136525	0.923912	0.789910
	O5327	O	0.081766	1.003915	0.694157
	C5328	C	0.318218	0.872711	0.745351
	C5329	C	0.286521	0.882705	0.725789
	C5330	C	0.293491	0.879633	0.741637
	C5331	C	0.329721	0.867163	0.774939
	C5332	C	0.361409	0.857211	0.794488
	C5333	C	0.354353	0.860484	0.778492
	H5334	H	0.258521	0.892008	0.700230
	H5335	H	0.389546	0.847513	0.820342
	C5336	C	0.327353	0.866082	0.784732
	C5337	C	0.266591	0.887241	0.728789
	N5338	N	0.289042	0.877615	0.756559
	O5339	O	0.232722	0.898978	0.700870
	O5340	O	0.352288	0.857515	0.810842
	C5341	C	0.321240	0.872715	0.736531
	C5342	C	0.381600	0.852540	0.791830
	N5343	N	0.359852	0.860701	0.765276
	O5344	O	0.415158	0.841818	0.819080
	O5345	O	0.296706	0.880921	0.710783
	C5346	C	0.181842	0.536206	0.758614
	C5347	C	0.211923	0.537176	0.774975
	C5348	C	0.201984	0.562987	0.753535
	C5349	C	0.164656	0.586268	0.718323
	C5350	C	0.134600	0.585285	0.702013
	C5351	C	0.144448	0.559493	0.723272
	H5352	H	0.240929	0.519158	0.802313
	H5353	H	0.105624	0.603296	0.674697
	C5354	C	0.164250	0.610302	0.703146
	C5355	C	0.226642	0.571274	0.761895
	N5356	N	0.202042	0.599814	0.730192
	O5357	O	0.260390	0.557107	0.789361
	O5358	O	0.137894	0.633879	0.674209
	C5359	C	0.182066	0.512168	0.773324
	C5360	C	0.119428	0.551214	0.714040
	N5361	N	0.143733	0.522723	0.745100
	O5362	O	0.085467	0.565325	0.686163
	O5363	O	0.208654	0.488596	0.802684
	C5364	C	0.398998	0.795717	0.784745
	C5365	C	0.404641	0.772223	0.798777
	C5366	C	0.392849	0.772712	0.781965
	C5367	C	0.376568	0.795157	0.753110
	C5368	C	0.371358	0.818483	0.739415
	C5369	C	0.383039	0.818022	0.756135
	H5370	H	0.416793	0.754960	0.820821
	H5371	H	0.358689	0.835985	0.717043
	C5372	C	0.365963	0.789259	0.740710
	C5373	C	0.393626	0.751516	0.789312
	N5374	N	0.376817	0.762897	0.763425
	O5375	O	0.405859	0.729174	0.812240
	O5376	O	0.351262	0.803369	0.716589
	C5377	C	0.406484	0.802680	0.794874
	C5378	C	0.379584	0.840043	0.746833
	N5379	N	0.393811	0.829593	0.770853
	O5380	O	0.367522	0.862264	0.723944
	O5381	O	0.420205	0.788761	0.818351
	C5382	C	0.260620	0.722446	0.702791
	C5383	C	0.231269	0.723310	0.680114
	C5384	C	0.232030	0.701162	0.695250
	C5385	C	0.259478	0.680083	0.730145
	C5386	C	0.287803	0.679816	0.752168
	C5387	C	0.287994	0.701419	0.737664
	H5388	H	0.210273	0.739457	0.653214
	H5389	H	0.308772	0.663404	0.779099
	C5390	C	0.254683	0.658312	0.739367
	C5391	C	0.208317	0.693773	0.680712
	N5392	N	0.225267	0.667119	0.709512
	O5393	O	0.181133	0.706975	0.651192
	O5394	O	0.272412	0.637082	0.766641
	C5395	C	0.270873	0.741042	0.696956
	C5396	C	0.316808	0.705797	0.755393
	N5397	N	0.305568	0.729240	0.730002
	O5398	O	0.344573	0.692613	0.785070
	O5399	O	0.254098	0.761748	0.670262
	C5400	C	0.028367	0.634160	0.885272
	C5401	C	0.027987	0.620102	0.885438
	C5402	C	0.014907	0.604926	0.887569
	C5403	C	0.003098	0.603262	0.890289
	C5404	C	0.004202	0.617286	0.890516
	C5405	C	0.016486	0.633010	0.887694
	H5406	H	-0.007146	0.591593	0.891759
	H5407	H	0.016455	0.644296	0.887048
	H5408	H	0.037394	0.621122	0.883680
	C5409	C	0.040736	0.687544	0.860912
	C5410	C	0.031625	0.712920	0.841999
	C5411	C	0.061689	0.714046	0.858554
	C5412	C	0.098135	0.691588	0.891310
	C5413	C	0.107006	0.666310	0.909817
	C5414	C	0.077167	0.664992	0.893713
	H5415	H	0.003461	0.730415	0.816640
	H5416	H	0.135203	0.648863	0.935179
	C5417	C	0.123479	0.699937	0.901837
	C5418	C	0.062415	0.737384	0.847130
	N5419	N	0.100562	0.727258	0.875008
	O5420	O	0.036586	0.760131	0.820453
	O5421	O	0.156533	0.686721	0.927563
	C5422	C	0.016164	0.678894	0.852145
	C5423	C	0.077115	0.641050	0.907054
	N5424	N	0.040065	0.650757	0.881425
	O5425	O	0.102597	0.618078	0.933778
	O5426	O	-0.016985	0.692408	0.826153
	C5427	C	-0.002680	0.584626	0.865392
	C5428	C	-0.015222	0.587394	0.846744
	C5429	C	-0.012660	0.565578	0.857279
	C5430	C	0.002046	0.542414	0.885031
	C5431	C	0.013951	0.539861	0.903223
	C5432	C	0.011128	0.561758	0.892517
	H5433	H	-0.025880	0.605234	0.825789
	H5434	H	0.024414	0.522073	0.924033
	C5435	C	0.003061	0.522369	0.891038
	C5436	C	-0.023262	0.561642	0.843376
	N5437	N	-0.012498	0.535165	0.865191
	O5438	O	-0.037896	0.577261	0.818804
	O5439	O	0.015075	0.499632	0.913441
	C5440	C	-0.001794	0.604147	0.860648
	C5441	C	0.021115	0.565991	0.905926
	N5442	N	0.012029	0.591948	0.885246
	O5443	O	0.033964	0.551025	0.929226
	O5444	O	-0.011085	0.626079	0.840111
	C5445	C	0.482372	0.619593	0.901469
	C5446	C	0.486077	0.620671	0.912955
	C5447	C	0.455322	0.626851	0.895832
	C5448	C	0.423410	0.631188	0.869535
	C5449	C	0.419593	0.630250	0.857899
	C5450	C	0.450037	0.624536	0.874546
	H5451	H	0.510914	0.617187	0.933493
	H5452	H	0.394594	0.633904	0.837211
	C5453	C	0.396297	0.637009	0.857290
	C5454	C	0.449276	0.630388	0.900651
	N5455	N	0.412994	0.636974	0.876225
	O5456	O	0.470411	0.628411	0.920806
	O5457	O	0.366342	0.640687	0.835996
	C5458	C	0.509290	0.614107	0.913394
	C5459	C	0.454763	0.623018	0.867709
	N5460	N	0.490902	0.616640	0.891944
	O5461	O	0.432993	0.626241	0.846372
	O5462	O	0.540454	0.608553	0.936467
	C5463	C	0.118979	0.766376	0.879347
	C5464	C	0.105424	0.752483	0.875878
	C5465	C	0.115031	0.741274	0.879030
	C5466	C	0.138327	0.743366	0.886180
	C5467	C	0.151934	0.757021	0.890127
	C5468	C	0.142237	0.768800	0.886468
	H5469	H	0.145597	0.734677	0.888579
	H5470	H	0.152688	0.779489	0.889304
	H5471	H	0.087288	0.751005	0.870159
	C5472	C	-0.021785	0.491136	0.869227
	C5473	C	-0.023183	0.504797	0.868613
	C5474	C	-0.012810	0.521811	0.864368
	C5475	C	-0.001789	0.525538	0.860209
	C5476	C	-0.001241	0.511940	0.860363
	C5477	C	-0.010683	0.494382	0.865357
	H5478	H	0.006319	0.538621	0.857027
	H5479	H	-0.009627	0.483564	0.866046
	H5480	H	-0.032195	0.502220	0.871310
	C5481	C	0.384857	0.659021	0.871498
	C5482	C	0.400364	0.655655	0.873942
	C5483	C	0.396205	0.641412	0.872608
	C5484	C	0.376827	0.630730	0.868847
	C5485	C	0.360618	0.635255	0.865260
	C5486	C	0.364376	0.649362	0.866495
	H5487	H	0.374140	0.619265	0.868545
	H5488	H	0.352432	0.652166	0.864538
	H5489	H	0.415552	0.663717	0.877172
	C5490	C	0.122673	0.791085	0.890808
	C5491	C	0.140781	0.791632	0.909663
	C5492	C	0.124478	0.817201	0.888637
	C5493	C	0.091611	0.840489	0.851174
	C5494	C	0.073040	0.839902	0.832182
	C5495	C	0.090098	0.814434	0.853425
	H5496	H	0.166386	0.773586	0.938746
	H5497	H	0.047913	0.858015	0.803224
	C5498	C	0.083439	0.864385	0.837684
	C5499	C	0.138782	0.825440	0.900503
	N5500	N	0.113777	0.853966	0.868868
	O5501	O	0.166272	0.811299	0.930584
	O5502	O	0.057263	0.887894	0.807011
	C5503	C	0.134554	0.767735	0.905221
	C5504	C	0.080398	0.806942	0.842727
	N5505	N	0.109197	0.778956	0.875314
	O5506	O	0.054385	0.821358	0.813016
	O5507	O	0.160484	0.744181	0.935782
	C5508	C	0.188884	0.788465	0.883349
	C5509	C	0.185829	0.810071	0.865073
	C5510	C	0.214119	0.812159	0.884040
	C5511	C	0.243749	0.793710	0.919043
	C5512	C	0.247449	0.771666	0.937734
	C5513	C	0.218894	0.769799	0.918565
	H5514	H	0.162784	0.824553	0.837836
	H5515	H	0.270149	0.757457	0.964724
	C5516	C	0.267345	0.803016	0.930134
	C5517	C	0.217923	0.833808	0.871670
	N5518	N	0.249802	0.827297	0.900289
	O5519	O	0.198314	0.853426	0.843351
	O5520	O	0.295331	0.792700	0.958216
	C5521	C	0.161624	0.781811	0.869925
	C5522	C	0.212423	0.750230	0.929182
	N5523	N	0.176296	0.759865	0.897885
	O5524	O	0.232883	0.730502	0.957989
	O5525	O	0.132747	0.792579	0.841398
	C5526	C	0.019754	0.510833	0.848428
	C5527	C	0.016897	0.508327	0.838351
	C5528	C	0.048313	0.501147	0.856545
	C5529	C	0.080283	0.496772	0.882920
	C5530	C	0.083000	0.499494	0.892784
	C5531	C	0.051571	0.506695	0.874576
	H5532	H	-0.007671	0.511397	0.818222
	H5533	H	0.107852	0.495960	0.913363
	C5534	C	0.108456	0.489139	0.896937
	C5535	C	0.054785	0.496773	0.852527
	N5536	N	0.090839	0.490510	0.876634
	O5537	O	0.034236	0.497967	0.833183
	O5538	O	0.140032	0.482880	0.920718
	C5539	C	-0.007547	0.516865	0.835888
	C5540	C	0.045429	0.510301	0.879279
	N5541	N	0.010240	0.515172	0.856482
	O5542	O	0.065339	0.509789	0.897867
	O5543	O	-0.038464	0.522032	0.813154
	C5544	C	0.431574	0.958258	0.860478
	C5545	C	0.401990	0.956406	0.844062
	C5546	C	0.412255	0.930762	0.863598
	C5547	C	0.449460	0.908492	0.897177
	C5548	C	0.479043	0.910401	0.913533
	C5549	C	0.468841	0.936062	0.894039
	H5550	H	0.373123	0.973647	0.818036
	H5551	H	0.507919	0.893126	0.939614
	C5552	C	0.450123	0.884299	0.910425
	C5553	C	0.387944	0.921673	0.854310
	N5554	N	0.412472	0.893654	0.883652
	O5555	O	0.354453	0.934873	0.827842
	O5556	O	0.476529	0.861467	0.937789
	C5557	C	0.430434	0.982536	0.847034
	C5558	C	0.492877	0.945493	0.903097
	N5559	N	0.467948	0.973466	0.873701
	O5560	O	0.526389	0.932658	0.929444
	O5561	O	0.403766	1.005268	0.819604
	C5562	C	0.326435	0.608193	0.874984
	C5563	C	0.329131	0.594552	0.892660
	C5564	C	0.295636	0.607148	0.870015
	C5565	C	0.261522	0.631269	0.832246
	C5566	C	0.258614	0.644599	0.814504
	C5567	C	0.292374	0.632420	0.837236
	H5568	H	0.355668	0.576002	0.921980
	H5569	H	0.232363	0.663568	0.785252
	C5570	C	0.232189	0.639948	0.816748
	C5571	C	0.289379	0.599658	0.880008
	N5572	N	0.251273	0.620714	0.846947
	O5573	O	0.311633	0.580167	0.909721
	O5574	O	0.199197	0.659365	0.785360
	C5575	C	0.357357	0.602333	0.890831
	C5576	C	0.300420	0.643039	0.827704
	N5577	N	0.340256	0.625119	0.861199
	O5578	O	0.278483	0.663164	0.798064
	O5579	O	0.390394	0.582943	0.922143
	C5580	C	0.386241	0.700734	0.867247
	C5581	C	0.376197	0.723447	0.853087
	C5582	C	0.387132	0.718994	0.871953
	C5583	C	0.408253	0.693326	0.903780
	C5584	C	0.417974	0.670740	0.917752
	C5585	C	0.405758	0.675465	0.898099
	H5586	H	0.360116	0.743296	0.828588
	H5587	H	0.432628	0.651127	0.941318
	C5588	C	0.414194	0.695546	0.916499
	C5589	C	0.377180	0.738799	0.862299
	N5590	N	0.391953	0.723382	0.888771
	O5591	O	0.359476	0.762898	0.837086
	O5592	O	0.432495	0.677865	0.943758
	C5593	C	0.377488	0.697906	0.853354
	C5594	C	0.408523	0.656146	0.904025
	N5595	N	0.391485	0.670670	0.876661
	O5596	O	0.420936	0.633045	0.926319
	O5597	O	0.361568	0.714789	0.827698
	C5598	C	0.155487	0.890279	0.874710
	C5599	C	0.145148	0.901615	0.870935
	C5600	C	0.123642	0.897180	0.866019
	C5601	C	0.112947	0.881429	0.865351
	C5602	C	0.124290	0.870011	0.869799
	C5603	C	0.145364	0.874338	0.874330
	H5604	H	0.096508	0.878125	0.861661
	H5605	H	0.153493	0.865646	0.877270
	H5606	H	0.153124	0.913929	0.871218
	C5607	C	0.263279	0.874880	0.892375
	C5608	C	0.274580	0.882417	0.887220
	C5609	C	0.277808	0.871007	0.886835
	C5610	C	0.270401	0.852381	0.891809
	C5611	C	0.258969	0.845484	0.896606
	C5612	C	0.255101	0.856636	0.896780
	H5613	H	0.273067	0.843605	0.891592
	H5614	H	0.245925	0.851205	0.900270
	H5615	H	0.280417	0.896742	0.883456
	C5616	C	0.114761	0.479182	0.871997
	C5617	C	0.102047	0.477858	0.873859
	C5618	C	0.104122	0.491171	0.875200
	C5619	C	0.118001	0.505957	0.874096
	C5620	C	0.130648	0.506862	0.872383
	C5621	C	0.129400	0.493471	0.871517
	H5622	H	0.118733	0.516752	0.874260
	H5623	H	0.139541	0.494219	0.870442
	H5624	H	0.090497	0.466962	0.873869
	C5625	C	0.391645	0.845364	0.893292
	C5626	C	0.404043	0.861075	0.890627
	C5627	C	0.401037	0.876722	0.887407
	C5628	C	0.386444	0.876625	0.887281
	C5629	C	0.374407	0.860707	0.890115
	C5630	C	0.376548	0.845127	0.892864
	H5631	H	0.384504	0.888649	0.885041
	H5632	H	0.366991	0.833011	0.894909
	H5633	H	0.415539	0.861284	0.890835
	C5634	C	0.223983	0.648443	0.838830
	C5635	C	0.212112	0.634194	0.843638
	C5636	C	0.213058	0.615458	0.849224
	C5637	C	0.225271	0.611004	0.849793
	C5638	C	0.237205	0.625393	0.845186
	C5639	C	0.236815	0.644088	0.839797
	H5640	H	0.226483	0.596230	0.854673
	H5641	H	0.246148	0.655060	0.836277
	H5642	H	0.202952	0.637418	0.843491
	C5643	C	0.331553	0.734949	0.865463
	C5644	C	0.341663	0.745877	0.872210
	C5645	C	0.367458	0.750795	0.882725
	C5646	C	0.384106	0.744172	0.887715
	C5647	C	0.373982	0.732746	0.881477
	C5648	C	0.347452	0.728341	0.869935
	H5649	H	0.404276	0.747731	0.896201
	H5650	H	0.339804	0.719574	0.865083
	H5651	H	0.331179	0.749341	0.870973
	C5652	C	0.222330	0.883968	0.902009
	C5653	C	0.255147	0.870155	0.924622
	C5654	C	0.250927	0.880967	0.906790
	C5655	C	0.216840	0.904635	0.869064
	C5656	C	0.184267	0.918663	0.846555
	C5657	C	0.187950	0.907294	0.864217
	H5658	H	0.281701	0.851857	0.953927
	H5659	H	0.157586	0.936515	0.817335
	C5660	C	0.221795	0.909287	0.859247
	C5661	C	0.278197	0.869084	0.922226
	N5662	N	0.257990	0.885975	0.892133
	O5663	O	0.310313	0.848498	0.953692
	O5664	O	0.200032	0.928157	0.829888
	C5665	C	0.215563	0.876489	0.911624
	C5666	C	0.157859	0.915305	0.848303
	N5667	N	0.175993	0.895265	0.878150
	O5668	O	0.124598	0.934317	0.816745
	O5669	O	0.238044	0.858171	0.941215
	C5670	C	0.099608	0.960560	0.849735
	C5671	C	0.090427	0.963883	0.832544
	C5672	C	0.098700	0.941161	0.846105
	C5673	C	0.114914	0.916725	0.874830
	C5674	C	0.123794	0.913573	0.891804
	C5675	C	0.115953	0.936253	0.878552
	H5676	H	0.078645	0.982641	0.810855
	H5677	H	0.136574	0.894641	0.914199
	C5678	C	0.121728	0.896472	0.883357
	C5679	C	0.094724	0.937506	0.835418
	N5680	N	0.111744	0.909941	0.860543
	O5681	O	0.080755	0.954061	0.810995
	O5682	O	0.132762	0.873628	0.904394
	C5683	C	0.095488	0.980601	0.842468
	C5684	C	0.123331	0.939955	0.891103
	N5685	N	0.111174	0.966858	0.868740
	O5686	O	0.136509	0.923931	0.914892
	O5687	O	0.081762	1.003926	0.819147
	C5688	C	0.318211	0.872700	0.870355
	C5689	C	0.286515	0.882690	0.850797
	C5690	C	0.293486	0.879616	0.866645
	C5691	C	0.329715	0.867151	0.899944
	C5692	C	0.361401	0.857204	0.919490
	C5693	C	0.354345	0.860477	0.903494
	H5694	H	0.258515	0.891991	0.825239
	H5695	H	0.389537	0.847509	0.945342
	C5696	C	0.327348	0.866069	0.909738
	C5697	C	0.266587	0.887220	0.853801
	N5698	N	0.289039	0.877597	0.881569
	O5699	O	0.232720	0.898952	0.825886
	O5700	O	0.352282	0.857504	0.935847
	C5701	C	0.321232	0.872707	0.861533
	C5702	C	0.381591	0.852537	0.916828
	N5703	N	0.359843	0.860698	0.890274
	O5704	O	0.415149	0.841818	0.944077
	O5705	O	0.296698	0.880913	0.835786
	C5706	C	0.181806	0.536240	0.883573
	C5707	C	0.211884	0.537214	0.899931
	C5708	C	0.201939	0.563027	0.878485
	C5709	C	0.164607	0.586306	0.843269
	C5710	C	0.134555	0.585319	0.826962
	C5711	C	0.144408	0.559525	0.848227
	H5712	H	0.240892	0.519198	0.927272
	H5713	H	0.105576	0.603328	0.799644
	C5714	C	0.164195	0.610342	0.828086
	C5715	C	0.226593	0.571318	0.886841
	N5716	N	0.201988	0.599857	0.855133
	O5717	O	0.260342	0.557153	0.914308
	O5718	O	0.137834	0.633919	0.799144
	C5719	C	0.182037	0.512199	0.898289
	C5720	C	0.119393	0.551242	0.839000
	N5721	N	0.143704	0.522751	0.870065
	O5722	O	0.085432	0.565350	0.811123
	O5723	O	0.208629	0.488628	0.927654
	C5724	C	0.398982	0.795729	0.909727
	C5725	C	0.404620	0.772238	0.923754
	C5726	C	0.392830	0.772729	0.906940
	C5727	C	0.376554	0.795175	0.878089
	C5728	C	0.371350	0.818498	0.864400
	C5729	C	0.383028	0.818035	0.881121
	H5730	H	0.416767	0.754974	0.945794
	H5731	H	0.358686	0.836001	0.842032
	C5732	C	0.365949	0.789281	0.865687
	C5733	C	0.393603	0.751537	0.914282
	N5734	N	0.376796	0.762920	0.888396
	O5735	O	0.405831	0.729196	0.937207
	O5736	O	0.351254	0.803391	0.841569
	C5737	C	0.406465	0.802689	0.919857
	C5738	C	0.379576	0.840053	0.871823
	N5739	N	0.393797	0.829601	0.895840
	O5740	O	0.367519	0.862274	0.848938
	O5741	O	0.420183	0.788769	0.943333
	C5742	C	0.260596	0.722471	0.827761
	C5743	C	0.231237	0.723340	0.805080
	C5744	C	0.231999	0.701192	0.820216
	C5745	C	0.259456	0.680107	0.855117
	C5746	C	0.287792	0.679834	0.877146
	C5747	C	0.287979	0.701438	0.862640
	H5748	H	0.210233	0.739491	0.778175
	H5749	H	0.308769	0.663417	0.904082
	C5750	C	0.254658	0.658337	0.864336
	C5751	C	0.208275	0.693809	0.805670
	N5752	N	0.225229	0.667152	0.834471
	O5753	O	0.181080	0.707018	0.776143
	O5754	O	0.272393	0.637103	0.891613
	C5755	C	0.270847	0.741068	0.821924
	C5756	C	0.316797	0.705814	0.880370
	N5757	N	0.305548	0.729263	0.854974
	O5758	O	0.344571	0.692625	0.910053
	O5759	O	0.254066	0.761777	0.795226
	C5760	C	0.528315	0.134205	0.010208
	C5761	C	0.527937	0.120145	0.010376
	C5762	C	0.514863	0.104965	0.012515
	C5763	C	0.503056	0.103301	0.015236
	C5764	C	0.504160	0.117328	0.015461
	C5765	C	0.516439	0.133054	0.012635
	H5766	H	0.492816	0.091630	0.016711
	H5767	H	0.516408	0.144341	0.011987
	H5768	H	0.537342	0.121165	0.008617
	C5769	C	0.540662	0.187599	-0.014179
	C5770	C	0.531540	0.212980	-0.033105
	C5771	C	0.561599	0.214111	-0.016556
	C5772	C	0.598050	0.191654	0.016206
	C5773	C	0.606932	0.166372	0.034726
	C5774	C	0.577098	0.165048	0.018628
	H5775	H	0.503371	0.230475	-0.058470
	H5776	H	0.635134	0.148925	0.060093
	C5777	C	0.623386	0.200010	0.026724
	C5778	C	0.562313	0.237457	-0.027995
	N5779	N	0.600458	0.227335	-0.000120
	O5780	O	0.536476	0.260205	-0.054682
	O5781	O	0.656443	0.186795	0.052452
	C5782	C	0.516097	0.178945	-0.022937
	C5783	C	0.577056	0.141102	0.031981
	N5784	N	0.540007	0.150806	0.006354
	O5785	O	0.602545	0.118128	0.058712
	O5786	O	0.482946	0.192456	-0.048930
	C5787	C	0.497283	0.084653	-0.009649
	C5788	C	0.484741	0.087417	-0.028295
	C5789	C	0.487313	0.065596	-0.017750
	C5790	C	0.502027	0.042433	0.010007
	C5791	C	0.513930	0.039884	0.028196
	C5792	C	0.511098	0.061785	0.017481
	H5793	H	0.474076	0.105257	-0.049255
	H5794	H	0.524400	0.022095	0.049011
	C5795	C	0.503052	0.022382	0.016024
	C5796	C	0.476711	0.061656	-0.031650
	N5797	N	0.487494	0.035174	-0.009820
	O5798	O	0.462091	0.077269	-0.056212
	O5799	O	0.515073	-0.000356	0.038433
	C5800	C	0.498164	0.104178	-0.014400
	C5801	C	0.521082	0.066023	0.030885
	N5802	N	0.511989	0.091983	0.010198
	O5803	O	0.533934	0.051058	0.054186
	O5804	O	0.488869	0.126111	-0.034941
	C5805	C	0.982359	0.119610	0.026447
	C5806	C	0.986083	0.120669	0.037956
	C5807	C	0.955331	0.126847	0.020837
	C5808	C	0.923405	0.131203	-0.005478
	C5809	C	0.919570	0.130284	-0.017136
	C5810	C	0.950011	0.124570	-0.000492
	H5811	H	1.010930	0.117170	0.058508
	H5812	H	0.894560	0.133952	-0.037837
	C5813	C	0.896299	0.137021	-0.017714
	C5814	C	0.949306	0.130364	0.025682
	N5815	N	0.913016	0.136966	0.001244
	O5816	O	0.970448	0.128382	0.045843
	O5817	O	0.866336	0.140711	-0.039020
	C5818	C	1.009268	0.114129	0.038363
	C5819	C	0.954722	0.123066	-0.007346
	N5820	N	0.990865	0.116679	0.016894
	O5821	O	0.932940	0.126303	-0.028698
	O5822	O	1.040438	0.108567	0.061442
	C5823	C	0.618851	0.266470	0.004192
	C5824	C	0.605302	0.252574	0.000729
	C5825	C	0.614916	0.241360	0.003890
	C5826	C	0.638213	0.243450	0.011041
	C5827	C	0.651814	0.257110	0.014981
	C5828	C	0.642110	0.268894	0.011314
	H5829	H	0.645492	0.234756	0.013449
	H5830	H	0.652558	0.279585	0.014146
	H5831	H	0.587166	0.251095	-0.004991
	C5832	C	0.478224	-0.008865	-0.005766
	C5833	C	0.476821	0.004799	-0.006387
	C5834	C	0.487190	0.021815	-0.010636
	C5835	C	0.498215	0.025540	-0.014791
	C5836	C	0.498769	0.011938	-0.014630
	C5837	C	0.489331	-0.005622	-0.009632
	H5838	H	0.506321	0.038624	-0.017974
	H5839	H	0.490390	-0.016443	-0.008940
	H5840	H	0.467806	0.002224	-0.003692
	C5841	C	0.884909	0.158984	-0.003445
	C5842	C	0.900404	0.155628	-0.001016
	C5843	C	0.896242	0.141391	-0.002355
	C5844	C	0.876874	0.130701	-0.006106
	C5845	C	0.860678	0.135213	-0.009677
	C5846	C	0.864437	0.149317	-0.008438
	H5847	H	0.874185	0.119239	-0.006412
	H5848	H	0.852502	0.152112	-0.010383
	H5849	H	0.915584	0.163696	0.002207
	C5850	C	0.622559	0.291161	0.015674
	C5851	C	0.640672	0.291696	0.034540
	C5852	C	0.624384	0.317261	0.013528
	C5853	C	0.591526	0.340557	-0.023933
	C5854	C	0.572950	0.339982	-0.042937
	C5855	C	0.589993	0.314518	-0.021708
	H5856	H	0.666271	0.273645	0.063623
	H5857	H	0.547830	0.358101	-0.071893
	C5858	C	0.583371	0.364444	-0.037405
	C5859	C	0.638699	0.325486	0.025410
	N5860	N	0.613709	0.354013	-0.006213
	O5861	O	0.666185	0.311336	0.055495
	O5862	O	0.557207	0.387957	-0.068072
	C5863	C	0.634426	0.267818	0.030073
	C5864	C	0.580286	0.307037	-0.032417
	N5865	N	0.609071	0.279049	0.000161
	O5866	O	0.554278	0.321461	-0.062131
	O5867	O	0.660346	0.244261	0.060628
	C5868	C	0.688804	0.288534	0.008245
	C5869	C	0.685769	0.310133	-0.010015
	C5870	C	0.714070	0.312209	0.008967
	C5871	C	0.743691	0.293754	0.043969
	C5872	C	0.747371	0.271716	0.062645
	C5873	C	0.718807	0.269861	0.043460
	H5874	H	0.662731	0.324620	-0.037251
	H5875	H	0.770065	0.257503	0.089633
	C5876	C	0.767300	0.303047	0.055078
	C5877	C	0.717896	0.333847	-0.003381
	N5878	N	0.749774	0.327327	0.025245
	O5879	O	0.698303	0.353465	-0.031691
	O5880	O	0.795283	0.292724	0.083164
	C5881	C	0.661529	0.281893	-0.005199
	C5882	C	0.712317	0.250300	0.054058
	N5883	N	0.676187	0.259948	0.022751
	O5884	O	0.732766	0.230571	0.082860
	O5885	O	0.632651	0.292672	-0.033733
	C5886	C	0.519771	0.010819	-0.026553
	C5887	C	0.516919	0.008306	-0.036624
	C5888	C	0.548336	0.001123	-0.018426
	C5889	C	0.580305	-0.003248	0.007945
	C5890	C	0.583017	-0.000520	0.017802
	C5891	C	0.551587	0.006684	-0.000409
	H5892	H	0.492352	0.011373	-0.056749
	H5893	H	0.607868	-0.004052	0.038379
	C5894	C	0.608479	-0.010884	0.021965
	C5895	C	0.554814	-0.003260	-0.022436
	N5896	N	0.590862	-0.009515	0.001664
	O5897	O	0.534259	-0.002058	-0.041788
	O5898	O	0.640055	-0.017144	0.045745
	C5899	C	0.492467	0.016856	-0.039098
	C5900	C	0.545440	0.010297	0.004288
	N5901	N	0.510252	0.015167	-0.018509
	O5902	O	0.565347	0.009790	0.022871
	O5903	O	0.461551	0.022021	-0.061831
	C5904	C	0.931585	0.458255	-0.014514
	C5905	C	0.902001	0.456403	-0.030932
	C5906	C	0.912267	0.430759	-0.011396
	C5907	C	0.949472	0.408489	0.022185
	C5908	C	0.979056	0.410398	0.038542
	C5909	C	0.968854	0.436058	0.019048
	H5910	H	0.873133	0.473644	-0.056960
	H5911	H	1.007932	0.393123	0.064624
	C5912	C	0.950135	0.384296	0.035433
	C5913	C	0.887956	0.421669	-0.020684
	N5914	N	0.912482	0.393651	0.008655
	O5915	O	0.854460	0.434873	-0.047163
	O5916	O	0.976542	0.361463	0.062798
	C5917	C	0.930444	0.482533	-0.027958
	C5918	C	0.992889	0.445490	0.028107
	N5919	N	0.967959	0.473463	-0.001290
	O5920	O	1.026402	0.432655	0.054455
	O5921	O	0.903776	0.505265	-0.055390
	C5922	C	0.826510	0.108141	0.000063
	C5923	C	0.829209	0.094503	0.017740
	C5924	C	0.795712	0.107095	-0.004905
	C5925	C	0.761594	0.131209	-0.042676
	C5926	C	0.758683	0.144537	-0.060419
	C5927	C	0.792445	0.132362	-0.037686
	H5928	H	0.855749	0.075958	0.047060
	H5929	H	0.732428	0.163501	-0.089671
	C5930	C	0.732258	0.139886	-0.058176
	C5931	C	0.789454	0.099606	0.005087
	N5932	N	0.751345	0.120659	-0.027976
	O5933	O	0.811718	0.080129	0.034802
	O5934	O	0.699261	0.159296	-0.089564
	C5935	C	0.857431	0.102286	0.015907
	C5936	C	0.800488	0.142983	-0.047221
	N5937	N	0.840325	0.125070	-0.013729
	O5938	O	0.778547	0.163105	-0.076863
	O5939	O	0.890471	0.082900	0.047220
	C5940	C	0.886298	0.200692	-0.007688
	C5941	C	0.876257	0.223404	-0.021846
	C5942	C	0.887186	0.218951	-0.002983
	C5943	C	0.908298	0.193284	0.028839
	C5944	C	0.918017	0.170698	0.042808
	C5945	C	0.905808	0.175424	0.023159
	H5946	H	0.860182	0.243253	-0.046342
	H5947	H	0.932664	0.151086	0.066369
	C5948	C	0.914233	0.195504	0.041553
	C5949	C	0.877234	0.238756	-0.012637
	N5950	N	0.891997	0.223340	0.013828
	O5951	O	0.859537	0.262854	-0.037846
	O5952	O	0.932524	0.177823	0.068807
	C5953	C	0.877548	0.197865	-0.021581
	C5954	C	0.908571	0.156107	0.029082
	N5955	N	0.891538	0.170631	0.001721
	O5956	O	0.920979	0.133006	0.051372
	O5957	O	0.861635	0.214747	-0.047232
	C5958	C	0.655462	0.390295	-0.000320
	C5959	C	0.645136	0.401622	-0.004081
	C5960	C	0.623624	0.397190	-0.009003
	C5961	C	0.612911	0.381452	-0.009692
	C5962	C	0.624241	0.370044	-0.005259
	C5963	C	0.645321	0.374367	-0.000721
	H5964	H	0.596466	0.378152	-0.013388
	H5965	H	0.653442	0.365681	0.002209
	H5966	H	0.653127	0.413926	-0.003781
	C5967	C	0.763270	0.374895	0.017358
	C5968	C	0.774579	0.382430	0.012210
	C5969	C	0.777808	0.371024	0.011821
	C5970	C	0.770394	0.352402	0.016787
	C5971	C	0.758952	0.345508	0.021576
	C5972	C	0.755083	0.356656	0.021751
	H5973	H	0.773060	0.343629	0.016568
	H5974	H	0.745901	0.351227	0.025234
	H5975	H	0.780421	0.396753	0.008452
	C5976	C	0.614776	-0.020837	-0.002983
	C5977	C	0.602064	-0.022163	-0.001119
	C5978	C	0.604144	-0.008853	0.000227
	C5979	C	0.618026	0.005931	-0.000874
	C5980	C	0.630671	0.006837	-0.002588
	C5981	C	0.629417	-0.006549	-0.003460
	H5982	H	0.618762	0.016724	-0.000706
	H5983	H	0.639557	-0.005801	-0.004537
	H5984	H	0.590514	-0.033058	-0.001110
	C5985	C	0.891657	0.345359	0.018300
	C5986	C	0.904055	0.361070	0.015635
	C5987	C	0.901047	0.376720	0.012412
	C5988	C	0.886454	0.376625	0.012283
	C5989	C	0.874417	0.360706	0.015119
	C5990	C	0.876559	0.345124	0.017870
	H5991	H	0.884511	0.388651	0.010040
	H5992	H	0.867003	0.333008	0.019917
	H5993	H	0.915552	0.361277	0.015844
	C5994	C	0.724031	0.148403	-0.036119
	C5995	C	0.712162	0.134153	-0.031309
	C5996	C	0.713115	0.115414	-0.025715
	C5997	C	0.725336	0.110955	-0.025138
	C5998	C	0.737270	0.125343	-0.029745
	C5999	C	0.736870	0.144043	-0.035144
	H6000	H	0.726553	0.096177	-0.020252
	H6001	H	0.746202	0.155017	-0.038666
	H6002	H	0.702995	0.137383	-0.031463
	C6003	C	0.831578	0.234922	-0.009502
	C6004	C	0.841685	0.245852	-0.002759
	C6005	C	0.867484	0.250768	0.007761
	C6006	C	0.884139	0.244138	0.012760
	C6007	C	0.874020	0.232708	0.006527
	C6008	C	0.847486	0.228307	-0.005020
	H6009	H	0.904312	0.247695	0.021250
	H6010	H	0.839840	0.219538	-0.009870
	H6011	H	0.831196	0.249320	-0.004002
	C6012	C	0.722315	0.383977	0.026990
	C6013	C	0.755131	0.370161	0.049605
	C6014	C	0.750915	0.380974	0.031775
	C6015	C	0.716832	0.404647	-0.005952
	C6016	C	0.684259	0.418678	-0.028461
	C6017	C	0.687939	0.407308	-0.010802
	H6018	H	0.781682	0.351859	0.078909
	H6019	H	0.657581	0.436534	-0.057682
	C6020	C	0.721788	0.409299	-0.015768
	C6021	C	0.778184	0.369089	0.047210
	N6022	N	0.757982	0.385986	0.017119
	O6023	O	0.810303	0.348508	0.078677
	O6024	O	0.700027	0.428170	-0.045126
	C6025	C	0.715544	0.376497	0.036603
	C6026	C	0.657847	0.415322	-0.026718
	N6027	N	0.675976	0.395279	0.003127
	O6028	O	0.624587	0.434338	-0.058276
	O6029	O	0.738022	0.358175	0.066193
	C6030	C	0.599614	0.460550	-0.025256
	C6031	C	0.590428	0.463878	-0.042453
	C6032	C	0.598701	0.441158	-0.028895
	C6033	C	0.614923	0.416718	-0.000164
	C6034	C	0.623808	0.413562	0.016815
	C6035	C	0.615964	0.436241	0.003564
	H6036	H	0.578641	0.482639	-0.064145
	H6037	H	0.636593	0.394627	0.039213
	C6038	C	0.621737	0.396468	0.008360
	C6039	C	0.594722	0.437508	-0.039587
	N6040	N	0.611737	0.409943	-0.014466
	O6041	O	0.580729	0.454069	-0.064026
	O6042	O	0.632782	0.373621	0.029404
	C6043	C	0.595495	0.480589	-0.032521
	C6044	C	0.623345	0.439939	0.016119
	N6045	N	0.611184	0.466843	-0.006245
	O6046	O	0.636525	0.423912	0.039910
	O6047	O	0.581766	0.503915	-0.055843
	C6048	C	0.818218	0.372711	-0.004649
	C6049	C	0.786521	0.382705	-0.024211
	C6050	C	0.793491	0.379633	-0.008363
	C6051	C	0.829721	0.367163	0.024939
	C6052	C	0.861409	0.357211	0.044488
	C6053	C	0.854353	0.360484	0.028492
	H6054	H	0.758521	0.392008	-0.049770
	H6055	H	0.889546	0.347513	0.070342
	C6056	C	0.827353	0.366082	0.034732
	C6057	C	0.766591	0.387241	-0.021211
	N6058	N	0.789042	0.377615	0.006559
	O6059	O	0.732722	0.398978	-0.049130
	O6060	O	0.852288	0.357515	0.060842
	C6061	C	0.821240	0.372715	-0.013469
	C6062	C	0.881600	0.352540	0.041830
	N6063	N	0.859852	0.360701	0.015276
	O6064	O	0.915158	0.341818	0.069080
	O6065	O	0.796706	0.380921	-0.039217
	C6066	C	0.681842	0.036206	0.008614
	C6067	C	0.711923	0.037176	0.024975
	C6068	C	0.701984	0.062987	0.003535
	C6069	C	0.664656	0.086268	-0.031677
	C6070	C	0.634600	0.085285	-0.047987
	C6071	C	0.644448	0.059493	-0.026728
	H6072	H	0.740929	0.019158	0.052313
	H6073	H	0.605624	0.103296	-0.075303
	C6074	C	0.664250	0.110302	-0.046854
	C6075	C	0.726642	0.071274	0.011895
	N6076	N	0.702042	0.099814	-0.019808
	O6077	O	0.760390	0.057107	0.039361
	O6078	O	0.637894	0.133879	-0.075791
	C6079	C	0.682066	0.012168	0.023324
	C6080	C	0.619428	0.051214	-0.035960
	N6081	N	0.643733	0.022723	-0.004900
	O6082	O	0.585467	0.065325	-0.063837
	O6083	O	0.708654	-0.011404	0.052684
	C6084	C	0.898998	0.295717	0.034745
	C6085	C	0.904641	0.272223	0.048777
	C6086	C	0.892849	0.272712	0.031965
	C6087	C	0.876568	0.295157	0.003110
	C6088	C	0.871358	0.318483	-0.010585
	C6089	C	0.883039	0.318022	0.006135
	H6090	H	0.916793	0.254960	0.070821
	H6091	H	0.858689	0.335985	-0.032957
	C6092	C	0.865963	0.289259	-0.009290
	C6093	C	0.893626	0.251516	0.039312
	N6094	N	0.876817	0.262897	0.013425
	O6095	O	0.905859	0.229174	0.062240
	O6096	O	0.851262	0.303369	-0.033411
	C6097	C	0.906484	0.302680	0.044874
	C6098	C	0.879584	0.340043	-0.003167
	N6099	N	0.893811	0.329593	0.020853
	O6100	O	0.867522	0.362264	-0.026056
	O6101	O	0.920205	0.288761	0.068351
	C6102	C	0.760620	0.222446	-0.047209
	C6103	C	0.731269	0.223310	-0.069886
	C6104	C	0.732030	0.201162	-0.054750
	C6105	C	0.759478	0.180083	-0.019855
	C6106	C	0.787803	0.179816	0.002168
	C6107	C	0.787994	0.201419	-0.012336
	H6108	H	0.710273	0.239457	-0.096786
	H6109	H	0.808772	0.163404	0.029099
	C6110	C	0.754683	0.158312	-0.010633
	C6111	C	0.708317	0.193773	-0.069288
	N6112	N	0.725267	0.167119	-0.040488
	O6113	O	0.681133	0.206975	-0.098808
	O6114	O	0.772412	0.137082	0.016641
	C6115	C	0.770873	0.241042	-0.053044
	C6116	C	0.816808	0.205797	0.005393
	N6117	N	0.805568	0.229240	-0.019998
	O6118	O	0.844573	0.192613	0.035070
	O6119	O	0.754098	0.261748	-0.079738
	C6120	C	0.528367	0.134160	0.135272
	C6121	C	0.527987	0.120102	0.135438
	C6122	C	0.514907	0.104926	0.137569
	C6123	C	0.503098	0.103262	0.140289
	C6124	C	0.504202	0.117286	0.140516
	C6125	C	0.516486	0.133010	0.137694
	H6126	H	0.492854	0.091593	0.141759
	H6127	H	0.516455	0.144296	0.137048
	H6128	H	0.537394	0.121122	0.133680
	C6129	C	0.540736	0.187544	0.110912
	C6130	C	0.531625	0.212920	0.091999
	C6131	C	0.561689	0.214046	0.108554
	C6132	C	0.598135	0.191588	0.141310
	C6133	C	0.607006	0.166310	0.159817
	C6134	C	0.577167	0.164992	0.143713
	H6135	H	0.503461	0.230415	0.066640
	H6136	H	0.635203	0.148863	0.185179
	C6137	C	0.623479	0.199937	0.151837
	C6138	C	0.562415	0.237384	0.097130
	N6139	N	0.600562	0.227258	0.125008
	O6140	O	0.536586	0.260131	0.070453
	O6141	O	0.656533	0.186721	0.177563
	C6142	C	0.516164	0.178894	0.102145
	C6143	C	0.577115	0.141050	0.157054
	N6144	N	0.540065	0.150757	0.131425
	O6145	O	0.602597	0.118078	0.183778
	O6146	O	0.483015	0.192408	0.076153
	C6147	C	0.497320	0.084626	0.115392
	C6148	C	0.484778	0.087394	0.096744
	C6149	C	0.487340	0.065578	0.107279
	C6150	C	0.502046	0.042414	0.135031
	C6151	C	0.513951	0.039861	0.153223
	C6152	C	0.511128	0.061758	0.142517
	H6153	H	0.474120	0.105234	0.075789
	H6154	H	0.524414	0.022073	0.174033
	C6155	C	0.503061	0.022369	0.141038
	C6156	C	0.476738	0.061642	0.093376
	N6157	N	0.487502	0.035165	0.115191
	O6158	O	0.462104	0.077261	0.068804
	O6159	O	0.515075	-0.000368	0.163441
	C6160	C	0.498206	0.104147	0.110648
	C6161	C	0.521115	0.065991	0.155926
	N6162	N	0.512029	0.091948	0.135246
	O6163	O	0.533964	0.051025	0.179226
	O6164	O	0.488915	0.126079	0.090111
	C6165	C	0.982372	0.119593	0.151469
	C6166	C	0.986077	0.120671	0.162955
	C6167	C	0.955322	0.126851	0.145832
	C6168	C	0.923410	0.131188	0.119535
	C6169	C	0.919593	0.130250	0.107899
	C6170	C	0.950037	0.124536	0.124546
	H6171	H	1.010914	0.117187	0.183493
	H6172	H	0.894594	0.133904	0.087211
	C6173	C	0.896297	0.137009	0.107290
	C6174	C	0.949276	0.130388	0.150651
	N6175	N	0.912994	0.136974	0.126225
	O6176	O	0.970411	0.128411	0.170806
	O6177	O	0.866342	0.140687	0.085996
	C6178	C	1.009290	0.114107	0.163394
	C6179	C	0.954763	0.123018	0.117709
	N6180	N	0.990902	0.116640	0.141944
	O6181	O	0.932993	0.126241	0.096372
	O6182	O	1.040454	0.108553	0.186467
	C6183	C	0.618979	0.266376	0.129347
	C6184	C	0.605424	0.252483	0.125878
	C6185	C	0.615031	0.241274	0.129030
	C6186	C	0.638327	0.243366	0.136180
	C6187	C	0.651934	0.257021	0.140127
	C6188	C	0.642237	0.268800	0.136468
	H6189	H	0.645597	0.234677	0.138579
	H6190	H	0.652688	0.279489	0.139304
	H6191	H	0.587288	0.251005	0.120159
	C6192	C	0.478215	-0.008864	0.119227
	C6193	C	0.476817	0.004797	0.118613
	C6194	C	0.487190	0.021811	0.114368
	C6195	C	0.498211	0.025538	0.110209
	C6196	C	0.498759	0.011940	0.110363
	C6197	C	0.489317	-0.005618	0.115357
	H6198	H	0.506319	0.038621	0.107027
	H6199	H	0.490373	-0.016436	0.116046
	H6200	H	0.467805	0.002220	0.121310
	C6201	C	0.884857	0.159021	0.121498
	C6202	C	0.900364	0.155655	0.123942
	C6203	C	0.896205	0.141412	0.122608
	C6204	C	0.876827	0.130730	0.118847
	C6205	C	0.860618	0.135255	0.115260
	C6206	C	0.864376	0.149362	0.116495
	H6207	H	0.874140	0.119265	0.118545
	H6208	H	0.852432	0.152166	0.114538
	H6209	H	0.915552	0.163717	0.127172
	C6210	C	0.622673	0.291085	0.140808
	C6211	C	0.640781	0.291632	0.159663
	C6212	C	0.624478	0.317201	0.138637
	C6213	C	0.591611	0.340489	0.101174
	C6214	C	0.573040	0.339902	0.082182
	C6215	C	0.590098	0.314434	0.103425
	H6216	H	0.666386	0.273586	0.188746
	H6217	H	0.547913	0.358015	0.053224
	C6218	C	0.583439	0.364385	0.087684
	C6219	C	0.638782	0.325440	0.150503
	N6220	N	0.613777	0.353966	0.118868
	O6221	O	0.666272	0.311299	0.180584
	O6222	O	0.557263	0.387894	0.057011
	C6223	C	0.634554	0.267735	0.155221
	C6224	C	0.580398	0.306942	0.092727
	N6225	N	0.609197	0.278956	0.125314
	O6226	O	0.554385	0.321358	0.063016
	O6227	O	0.660484	0.244181	0.185782
	C6228	C	0.688884	0.288465	0.133349
	C6229	C	0.685829	0.310071	0.115073
	C6230	C	0.714119	0.312159	0.134040
	C6231	C	0.743749	0.293710	0.169043
	C6232	C	0.747449	0.271666	0.187734
	C6233	C	0.718894	0.269799	0.168565
	H6234	H	0.662784	0.324553	0.087836
	H6235	H	0.770149	0.257457	0.214724
	C6236	C	0.767345	0.303016	0.180134
	C6237	C	0.717923	0.333808	0.121670
	N6238	N	0.749802	0.327297	0.150289
	O6239	O	0.698314	0.353426	0.093351
	O6240	O	0.795331	0.292700	0.208216
	C6241	C	0.661624	0.281811	0.119925
	C6242	C	0.712423	0.250230	0.179182
	N6243	N	0.676296	0.259865	0.147885
	O6244	O	0.732883	0.230502	0.207989
	O6245	O	0.632747	0.292579	0.091398
	C6246	C	0.519754	0.010833	0.098428
	C6247	C	0.516897	0.008327	0.088351
	C6248	C	0.548313	0.001147	0.106545
	C6249	C	0.580283	-0.003228	0.132920
	C6250	C	0.583000	-0.000506	0.142784
	C6251	C	0.551571	0.006695	0.124576
	H6252	H	0.492329	0.011397	0.068222
	H6253	H	0.607852	-0.004040	0.163363
	C6254	C	0.608456	-0.010861	0.146937
	C6255	C	0.554785	-0.003227	0.102527
	N6256	N	0.590839	-0.009490	0.126634
	O6257	O	0.534236	-0.002033	0.083183
	O6258	O	0.640032	-0.017120	0.170718
	C6259	C	0.492453	0.016865	0.085888
	C6260	C	0.545429	0.010301	0.129279
	N6261	N	0.510240	0.015172	0.106482
	O6262	O	0.565339	0.009789	0.147867
	O6263	O	0.461536	0.022032	0.063154
	C6264	C	0.931574	0.458258	0.110478
	C6265	C	0.901990	0.456406	0.094062
	C6266	C	0.912255	0.430762	0.113598
	C6267	C	0.949460	0.408492	0.147177
	C6268	C	0.979043	0.410401	0.163533
	C6269	C	0.968841	0.436062	0.144039
	H6270	H	0.873123	0.473647	0.068036
	H6271	H	1.007919	0.393126	0.189614
	C6272	C	0.950123	0.384299	0.160425
	C6273	C	0.887944	0.421673	0.104310
	N6274	N	0.912472	0.393654	0.133652
	O6275	O	0.854453	0.434873	0.077842
	O6276	O	0.976529	0.361467	0.187789
	C6277	C	0.930434	0.482536	0.097034
	C6278	C	0.992877	0.445493	0.153097
	N6279	N	0.967948	0.473466	0.123701
	O6280	O	1.026389	0.432658	0.179444
	O6281	O	0.903766	0.505268	0.069604
	C6282	C	0.826435	0.108193	0.124984
	C6283	C	0.829131	0.094552	0.142660
	C6284	C	0.795636	0.107148	0.120015
	C6285	C	0.761522	0.131269	0.082246
	C6286	C	0.758614	0.144599	0.064504
	C6287	C	0.792374	0.132420	0.087236
	H6288	H	0.855668	0.076002	0.171980
	H6289	H	0.732363	0.163568	0.035252
	C6290	C	0.732189	0.139948	0.066748
	C6291	C	0.789379	0.099658	0.130008
	N6292	N	0.751273	0.120714	0.096947
	O6293	O	0.811633	0.080167	0.159721
	O6294	O	0.699197	0.159365	0.035360
	C6295	C	0.857357	0.102333	0.140831
	C6296	C	0.800420	0.143039	0.077704
	N6297	N	0.840256	0.125119	0.111199
	O6298	O	0.778483	0.163164	0.048064
	O6299	O	0.890394	0.082943	0.172143
	C6300	C	0.886241	0.200734	0.117247
	C6301	C	0.876197	0.223447	0.103087
	C6302	C	0.887132	0.218994	0.121953
	C6303	C	0.908253	0.193326	0.153780
	C6304	C	0.917974	0.170740	0.167752
	C6305	C	0.905758	0.175465	0.148099
	H6306	H	0.860116	0.243296	0.078588
	H6307	H	0.932628	0.151127	0.191318
	C6308	C	0.914194	0.195546	0.166499
	C6309	C	0.877180	0.238799	0.112299
	N6310	N	0.891953	0.223382	0.138771
	O6311	O	0.859476	0.262898	0.087086
	O6312	O	0.932495	0.177865	0.193758
	C6313	C	0.877488	0.197906	0.103354
	C6314	C	0.908523	0.156146	0.154025
	N6315	N	0.891485	0.170670	0.126661
	O6316	O	0.920936	0.133045	0.176319
	O6317	O	0.861568	0.214789	0.077698
	C6318	C	0.655487	0.390279	0.124710
	C6319	C	0.645148	0.401615	0.120935
	C6320	C	0.623642	0.397180	0.116019
	C6321	C	0.612947	0.381429	0.115351
	C6322	C	0.624290	0.370011	0.119799
	C6323	C	0.645364	0.374338	0.124330
	H6324	H	0.596508	0.378125	0.111661
	H6325	H	0.653493	0.365646	0.127270
	H6326	H	0.653124	0.413929	0.121218
	C6327	C	0.763279	0.374880	0.142375
	C6328	C	0.774580	0.382417	0.137220
	C6329	C	0.777808	0.371007	0.136835
	C6330	C	0.770401	0.352381	0.141809
	C6331	C	0.758969	0.345484	0.146606
	C6332	C	0.755101	0.356636	0.146780
	H6333	H	0.773067	0.343605	0.141592
	H6334	H	0.745925	0.351205	0.150270
	H6335	H	0.780417	0.396742	0.133456
	C6336	C	0.614761	-0.020818	0.121997
	C6337	C	0.602047	-0.022142	0.123859
	C6338	C	0.604122	-0.008829	0.125200
	C6339	C	0.618001	0.005957	0.124096
	C6340	C	0.630648	0.006862	0.122383
	C6341	C	0.629400	-0.006529	0.121517
	H6342	H	0.618733	0.016752	0.124260
	H6343	H	0.639541	-0.005781	0.120442
	H6344	H	0.590497	-0.033038	0.123869
	C6345	C	0.891645	0.345364	0.143292
	C6346	C	0.904043	0.361075	0.140627
	C6347	C	0.901037	0.376722	0.137407
	C6348	C	0.886444	0.376625	0.137281
	C6349	C	0.874407	0.360707	0.140115
	C6350	C	0.876548	0.345127	0.142864
	H6351	H	0.884504	0.388649	0.135041
	H6352	H	0.866991	0.333011	0.144909
	H6353	H	0.915539	0.361284	0.140835
	C6354	C	0.723983	0.148443	0.088830
	C6355	C	0.712112	0.134194	0.093638
	C6356	C	0.713058	0.115458	0.099224
	C6357	C	0.725271	0.111004	0.099793
	C6358	C	0.737205	0.125393	0.095186
	C6359	C	0.736815	0.144088	0.089797
	H6360	H	0.726483	0.096230	0.104673
	H6361	H	0.746148	0.155060	0.086277
	H6362	H	0.702952	0.137418	0.093491
	C6363	C	0.831553	0.234949	0.115463
	C6364	C	0.841663	0.245877	0.122210
	C6365	C	0.867458	0.250795	0.132725
	C6366	C	0.884106	0.244172	0.137715
	C6367	C	0.873982	0.232746	0.131477
	C6368	C	0.847452	0.228341	0.119935
	H6369	H	0.904276	0.247731	0.146201
	H6370	H	0.839804	0.219574	0.115083
	H6371	H	0.831179	0.249341	0.120973
	C6372	C	0.722330	0.383968	0.152009
	C6373	C	0.755147	0.370155	0.174622
	C6374	C	0.750927	0.380967	0.156790
	C6375	C	0.716840	0.404635	0.119064
	C6376	C	0.684267	0.418663	0.096555
	C6377	C	0.687950	0.407294	0.114217
	H6378	H	0.781701	0.351857	0.203927
	H6379	H	0.657586	0.436515	0.067335
	C6380	C	0.721795	0.409287	0.109247
	C6381	C	0.778197	0.369084	0.172226
	N6382	N	0.757990	0.385975	0.142133
	O6383	O	0.810313	0.348498	0.203692
	O6384	O	0.700032	0.428157	0.079888
	C6385	C	0.715563	0.376489	0.161624
	C6386	C	0.657859	0.415305	0.098303
	N6387	N	0.675993	0.395265	0.128150
	O6388	O	0.624598	0.434317	0.066745
	O6389	O	0.738044	0.358171	0.191215
	C6390	C	0.599608	0.460560	0.099735
	C6391	C	0.590427	0.463883	0.082544
	C6392	C	0.598700	0.441161	0.096105
	C6393	C	0.614914	0.416725	0.124830
	C6394	C	0.623794	0.413573	0.141804
	C6395	C	0.615953	0.436253	0.128552
	H6396	H	0.578645	0.482641	0.060855
	H6397	H	0.636574	0.394641	0.164199
	C6398	C	0.621728	0.396472	0.133357
	C6399	C	0.594724	0.437506	0.085418
	N6400	N	0.611744	0.409941	0.110543
	O6401	O	0.580755	0.454061	0.060995
	O6402	O	0.632762	0.373628	0.154394
	C6403	C	0.595488	0.480601	0.092468
	C6404	C	0.623331	0.439955	0.141103
	N6405	N	0.611174	0.466858	0.118740
	O6406	O	0.636509	0.423931	0.164892
	O6407	O	0.581762	0.503926	0.069147
	C6408	C	0.818211	0.372700	0.120355
	C6409	C	0.786515	0.382690	0.100797
	C6410	C	0.793486	0.379616	0.116645
	C6411	C	0.829715	0.367151	0.149944
	C6412	C	0.861401	0.357204	0.169490
	C6413	C	0.854345	0.360477	0.153494
	H6414	H	0.758515	0.391991	0.075239
	H6415	H	0.889537	0.347509	0.195342
	C6416	C	0.827348	0.366069	0.159738
	C6417	C	0.766587	0.387220	0.103801
	N6418	N	0.789039	0.377597	0.131569
	O6419	O	0.732720	0.398952	0.075886
	O6420	O	0.852282	0.357504	0.185847
	C6421	C	0.821232	0.372707	0.111533
	C6422	C	0.881591	0.352537	0.166828
	N6423	N	0.859843	0.360698	0.140274
	O6424	O	0.915149	0.341818	0.194077
	O6425	O	0.796698	0.380913	0.085786
	C6426	C	0.681806	0.036240	0.133573
	C6427	C	0.711884	0.037214	0.149931
	C6428	C	0.701939	0.063027	0.128485
	C6429	C	0.664607	0.086306	0.093269
	C6430	C	0.634555	0.085319	0.076962
	C6431	C	0.644408	0.059525	0.098227
	H6432	H	0.740892	0.019198	0.177272
	H6433	H	0.605576	0.103328	0.049644
	C6434	C	0.664195	0.110342	0.078086
	C6435	C	0.726593	0.071318	0.136841
	N6436	N	0.701988	0.099857	0.105133
	O6437	O	0.760342	0.057153	0.164308
	O6438	O	0.637834	0.133919	0.049144
	C6439	C	0.682037	0.012199	0.148289
	C6440	C	0.619393	0.051242	0.089000
	N6441	N	0.643704	0.022751	0.120065
	O6442	O	0.585432	0.065350	0.061123
	O6443	O	0.708629	-0.011372	0.177654
	C6444	C	0.898982	0.295729	0.159727
	C6445	C	0.904620	0.272238	0.173754
	C6446	C	0.892830	0.272729	0.156940
	C6447	C	0.876554	0.295175	0.128089
	C6448	C	0.871350	0.318498	0.114400
	C6449	C	0.883028	0.318035	0.131121
	H6450	H	0.916767	0.254974	0.195794
	H6451	H	0.858686	0.336001	0.092032
	C6452	C	0.865949	0.289281	0.115687
	C6453	C	0.893603	0.251537	0.164282
	N6454	N	0.876796	0.262920	0.138396
	O6455	O	0.905831	0.229196	0.187207
	O6456	O	0.851254	0.303391	0.091569
	C6457	C	0.906465	0.302689	0.169857
	C6458	C	0.879576	0.340053	0.121823
	N6459	N	0.893797	0.329601	0.145840
	O6460	O	0.867519	0.362274	0.098938
	O6461	O	0.920183	0.288769	0.193333
	C6462	C	0.760596	0.222471	0.077761
	C6463	C	0.731237	0.223340	0.055080
	C6464	C	0.731999	0.201192	0.070216
	C6465	C	0.759456	0.180107	0.105117
	C6466	C	0.787792	0.179834	0.127146
	C6467	C	0.787979	0.201438	0.112640
	H6468	H	0.710233	0.239491	0.028175
	H6469	H	0.808769	0.163417	0.154082
	C6470	C	0.754658	0.158337	0.114336
	C6471	C	0.708275	0.193809	0.055670
	N6472	N	0.725229	0.167152	0.084471
	O6473	O	0.681080	0.207018	0.026143
	O6474	O	0.772393	0.137103	0.141613
	C6475	C	0.770847	0.241068	0.071924
	C6476	C	0.816797	0.205814	0.130370
	N6477	N	0.805548	0.229263	0.104974
	O6478	O	0.844571	0.192625	0.160053
	O6479	O	0.754066	0.261777	0.045226
	C6480	C	0.528315	0.134205	0.260208
	C6481	C	0.527937	0.120145	0.260376
	C6482	C	0.514863	0.104965	0.262515
	C6483	C	0.503056	0.103301	0.265236
	C6484	C	0.504160	0.117328	0.265461
	C6485	C	0.516439	0.133054	0.262635
	H6486	H	0.492816	0.091630	0.266711
	H6487	H	0.516408	0.144341	0.261987
	H6488	H	0.537342	0.121165	0.258617
	C6489	C	0.540662	0.187599	0.235821
	C6490	C	0.531540	0.212980	0.216895
	C6491	C	0.561599	0.214111	0.233444
	C6492	C	0.598050	0.191654	0.266206
	C6493	C	0.606932	0.166372	0.284726
	C6494	C	0.577098	0.165048	0.268628
	H6495	H	0.503371	0.230475	0.191530
	H6496	H	0.635134	0.148925	0.310093
	C6497	C	0.623386	0.200010	0.276724
	C6498	C	0.562313	0.237457	0.222005
	N6499	N	0.600458	0.227335	0.249880
	O6500	O	0.536476	0.260205	0.195318
	O6501	O	0.656443	0.186795	0.302452
	C6502	C	0.516097	0.178945	0.227063
	C6503	C	0.577056	0.141102	0.281981
	N6504	N	0.540007	0.150806	0.256354
	O6505	O	0.602545	0.118128	0.308712
	O6506	O	0.482946	0.192456	0.201070
	C6507	C	0.497283	0.084653	0.240351
	C6508	C	0.484741	0.087417	0.221705
	C6509	C	0.487313	0.065596	0.232250
	C6510	C	0.502027	0.042433	0.260007
	C6511	C	0.513930	0.039884	0.278196
	C6512	C	0.511098	0.061785	0.267481
	H6513	H	0.474076	0.105257	0.200745
	H6514	H	0.524400	0.022095	0.299011
	C6515	C	0.503052	0.022382	0.266024
	C6516	C	0.476711	0.061656	0.218350
	N6517	N	0.487494	0.035174	0.240180
	O6518	O	0.462091	0.077269	0.193788
	O6519	O	0.515073	-0.000356	0.288433
	C6520	C	0.498164	0.104178	0.235600
	C6521	C	0.521082	0.066023	0.280885
	N6522	N	0.511989	0.091983	0.260198
	O6523	O	0.533934	0.051058	0.304186
	O6524	O	0.488869	0.126111	0.215059
	C6525	C	0.982359	0.119610	0.276447
	C6526	C	0.986083	0.120669	0.287956
	C6527	C	0.955331	0.126847	0.270837
	C6528	C	0.923405	0.131203	0.244522
	C6529	C	0.919570	0.130284	0.232864
	C6530	C	0.950011	0.124570	0.249508
	H6531	H	1.010930	0.117170	0.308508
	H6532	H	0.894560	0.133952	0.212163
	C6533	C	0.896299	0.137021	0.232286
	C6534	C	0.949306	0.130364	0.275682
	N6535	N	0.913016	0.136966	0.251244
	O6536	O	0.970448	0.128382	0.295843
	O6537	O	0.866336	0.140711	0.210980
	C6538	C	1.009268	0.114129	0.288363
	C6539	C	0.954722	0.123066	0.242654
	N6540	N	0.990865	0.116679	0.266894
	O6541	O	0.932940	0.126303	0.221302
	O6542	O	1.040438	0.108567	0.311442
	C6543	C	0.618851	0.266470	0.254192
	C6544	C	0.605302	0.252574	0.250729
	C6545	C	0.614916	0.241360	0.253890
	C6546	C	0.638213	0.243450	0.261041
	C6547	C	0.651814	0.257110	0.264981
	C6548	C	0.642110	0.268894	0.261314
	H6549	H	0.645492	0.234756	0.263449
	H6550	H	0.652558	0.279585	0.264146
	H6551	H	0.587166	0.251095	0.245009
	C6552	C	0.478224	-0.008865	0.244234
	C6553	C	0.476821	0.004799	0.243613
	C6554	C	0.487190	0.021815	0.239364
	C6555	C	0.498215	0.025540	0.235209
	C6556	C	0.498769	0.011938	0.235370
	C6557	C	0.489331	-0.005622	0.240368
	H6558	H	0.506321	0.038624	0.232026
	H6559	H	0.490390	-0.016443	0.241060
	H6560	H	0.467806	0.002224	0.246308
	C6561	C	0.884909	0.158984	0.246555
	C6562	C	0.900404	0.155628	0.248984
	C6563	C	0.896242	0.141391	0.247645
	C6564	C	0.876874	0.130701	0.243894
	C6565	C	0.860678	0.135213	0.240323
	C6566	C	0.864437	0.149317	0.241562
	H6567	H	0.874185	0.119239	0.243588
	H6568	H	0.852502	0.152112	0.239617
	H6569	H	0.915584	0.163696	0.252207
	C6570	C	0.622559	0.291161	0.265674
	C6571	C	0.640672	0.291696	0.284540
	C6572	C	0.624384	0.317261	0.263528
	C6573	C	0.591526	0.340557	0.226067
	C6574	C	0.572950	0.339982	0.207063
	C6575	C	0.589993	0.314518	0.228292
	H6576	H	0.666271	0.273645	0.313623
	H6577	H	0.547830	0.358101	0.178107
	C6578	C	0.583371	0.364444	0.212595
	C6579	C	0.638699	0.325486	0.275410
	N6580	N	0.613709	0.354013	0.243787
	O6581	O	0.666185	0.311336	0.305495
	O6582	O	0.557207	0.387957	0.181928
	C6583	C	0.634426	0.267818	0.280073
	C6584	C	0.580286	0.307037	0.217583
	N6585	N	0.609071	0.279049	0.250161
	O6586	O	0.554278	0.321461	0.187869
	O6587	O	0.660346	0.244261	0.310628
	C6588	C	0.688804	0.288534	0.258245
	C6589	C	0.685769	0.310133	0.239985
	C6590	C	0.714070	0.312209	0.258967
	C6591	C	0.743691	0.293754	0.293969
	C6592	C	0.747371	0.271716	0.312645
	C6593	C	0.718807	0.269861	0.293460
	H6594	H	0.662731	0.324620	0.212749
	H6595	H	0.770065	0.257503	0.339633
	C6596	C	0.767300	0.303047	0.305078
	C6597	C	0.717896	0.333847	0.246619
	N6598	N	0.749774	0.327327	0.275245
	O6599	O	0.698303	0.353465	0.218309
	O6600	O	0.795283	0.292724	0.333164
	C6601	C	0.661529	0.281893	0.244801
	C6602	C	0.712317	0.250300	0.304058
	N6603	N	0.676187	0.259948	0.272751
	O6604	O	0.732766	0.230571	0.332860
	O6605	O	0.632651	0.292672	0.216267
	C6606	C	0.519771	0.010819	0.223447
	C6607	C	0.516919	0.008306	0.213376
	C6608	C	0.548336	0.001123	0.231574
	C6609	C	0.580305	-0.003248	0.257945
	C6610	C	0.583017	-0.000520	0.267802
	C6611	C	0.551587	0.006684	0.249591
	H6612	H	0.492352	0.011373	0.193251
	H6613	H	0.607868	-0.004052	0.288379
	C6614	C	0.608479	-0.010884	0.271965
	C6615	C	0.554814	-0.003260	0.227564
	N6616	N	0.590862	-0.009515	0.251664
	O6617	O	0.534259	-0.002058	0.208212
	O6618	O	0.640055	-0.017144	0.295745
	C6619	C	0.492467	0.016856	0.210902
	C6620	C	0.545440	0.010297	0.254288
	N6621	N	0.510252	0.015167	0.231491
	O6622	O	0.565347	0.009790	0.272871
	O6623	O	0.461551	0.022021	0.188169
	C6624	C	0.931585	0.458255	0.235486
	C6625	C	0.902001	0.456403	0.219068
	C6626	C	0.912267	0.430759	0.238604
	C6627	C	0.949472	0.408489	0.272185
	C6628	C	0.979056	0.410398	0.288542
	C6629	C	0.968854	0.436058	0.269048
	H6630	H	0.873133	0.473644	0.193040
	H6631	H	1.007932	0.393123	0.314624
	C6632	C	0.950135	0.384296	0.285433
	C6633	C	0.887956	0.421669	0.229316
	N6634	N	0.912482	0.393651	0.258655
	O6635	O	0.854460	0.434873	0.202837
	O6636	O	0.976542	0.361463	0.312798
	C6637	C	0.930444	0.482533	0.222042
	C6638	C	0.992889	0.445490	0.278107
	N6639	N	0.967959	0.473463	0.248710
	O6640	O	1.026402	0.432655	0.304455
	O6641	O	0.903776	0.505265	0.194610
	C6642	C	0.826510	0.108141	0.250063
	C6643	C	0.829209	0.094503	0.267740
	C6644	C	0.795712	0.107095	0.245095
	C6645	C	0.761594	0.131209	0.207324
	C6646	C	0.758683	0.144537	0.189581
	C6647	C	0.792445	0.132362	0.212314
	H6648	H	0.855749	0.075958	0.297060
	H6649	H	0.732428	0.163501	0.160329
	C6650	C	0.732258	0.139886	0.191824
	C6651	C	0.789454	0.099606	0.255087
	N6652	N	0.751345	0.120659	0.222024
	O6653	O	0.811718	0.080129	0.284802
	O6654	O	0.699261	0.159296	0.160436
	C6655	C	0.857431	0.102286	0.265907
	C6656	C	0.800488	0.142983	0.202779
	N6657	N	0.840325	0.125070	0.236271
	O6658	O	0.778547	0.163105	0.173137
	O6659	O	0.890471	0.082900	0.297220
	C6660	C	0.886298	0.200692	0.242312
	C6661	C	0.876257	0.223404	0.228154
	C6662	C	0.887186	0.218951	0.247017
	C6663	C	0.908298	0.193284	0.278839
	C6664	C	0.918017	0.170698	0.292808
	C6665	C	0.905808	0.175424	0.273159
	H6666	H	0.860182	0.243253	0.203658
	H6667	H	0.932664	0.151086	0.316369
	C6668	C	0.914233	0.195504	0.291553
	C6669	C	0.877234	0.238756	0.237363
	N6670	N	0.891997	0.223340	0.263828
	O6671	O	0.859537	0.262854	0.212154
	O6672	O	0.932524	0.177823	0.318807
	C6673	C	0.877548	0.197865	0.228419
	C6674	C	0.908571	0.156107	0.279082
	N6675	N	0.891538	0.170631	0.251721
	O6676	O	0.920979	0.133006	0.301372
	O6677	O	0.861635	0.214747	0.202768
	C6678	C	0.655462	0.390295	0.249680
	C6679	C	0.645136	0.401622	0.245919
	C6680	C	0.623624	0.397190	0.240997
	C6681	C	0.612911	0.381452	0.240308
	C6682	C	0.624241	0.370044	0.244741
	C6683	C	0.645321	0.374367	0.249279
	H6684	H	0.596466	0.378152	0.236612
	H6685	H	0.653442	0.365681	0.252209
	H6686	H	0.653127	0.413926	0.246219
	C6687	C	0.763270	0.374895	0.267358
	C6688	C	0.774579	0.382430	0.262210
	C6689	C	0.777808	0.371024	0.261821
	C6690	C	0.770394	0.352402	0.266787
	C6691	C	0.758952	0.345508	0.271576
	C6692	C	0.755083	0.356656	0.271751
	H6693	H	0.773060	0.343629	0.266568
	H6694	H	0.745901	0.351227	0.275234
	H6695	H	0.780421	0.396753	0.258452
	C6696	C	0.614776	-0.020837	0.247017
	C6697	C	0.602064	-0.022163	0.248881
	C6698	C	0.604144	-0.008853	0.250227
	C6699	C	0.618026	0.005931	0.249126
	C6700	C	0.630671	0.006837	0.247412
	C6701	C	0.629417	-0.006549	0.246540
	H6702	H	0.618762	0.016724	0.249294
	H6703	H	0.639557	-0.005801	0.245463
	H6704	H	0.590514	-0.033058	0.248890
	C6705	C	0.891657	0.345359	0.268300
	C6706	C	0.904055	0.361070	0.265635
	C6707	C	0.901047	0.376720	0.262412
	C6708	C	0.886454	0.376625	0.262283
	C6709	C	0.874417	0.360706	0.265119
	C6710	C	0.876559	0.345124	0.267870
	H6711	H	0.884511	0.388651	0.260040
	H6712	H	0.867003	0.333008	0.269917
	H6713	H	0.915552	0.361277	0.265844
	C6714	C	0.724031	0.148403	0.213881
	C6715	C	0.712162	0.134153	0.218691
	C6716	C	0.713115	0.115414	0.224285
	C6717	C	0.725336	0.110955	0.224862
	C6718	C	0.737270	0.125343	0.220255
	C6719	C	0.736870	0.144043	0.214856
	H6720	H	0.726553	0.096177	0.229748
	H6721	H	0.746202	0.155017	0.211334
	H6722	H	0.702995	0.137383	0.218537
	C6723	C	0.831578	0.234922	0.240498
	C6724	C	0.841685	0.245852	0.247241
	C6725	C	0.867484	0.250768	0.257761
	C6726	C	0.884139	0.244138	0.262760
	C6727	C	0.874020	0.232708	0.256527
	C6728	C	0.847486	0.228307	0.244980
	H6729	H	0.904312	0.247695	0.271250
	H6730	H	0.839840	0.219538	0.240130
	H6731	H	0.831196	0.249320	0.245998
	C6732	C	0.722315	0.383977	0.276990
	C6733	C	0.755131	0.370161	0.299605
	C6734	C	0.750915	0.380974	0.281775
	C6735	C	0.716832	0.404647	0.244048
	C6736	C	0.684259	0.418678	0.221539
	C6737	C	0.687939	0.407308	0.239198
	H6738	H	0.781682	0.351859	0.328909
	H6739	H	0.657581	0.436534	0.192318
	C6740	C	0.721788	0.409299	0.234232
	C6741	C	0.778184	0.369089	0.297210
	N6742	N	0.757982	0.385986	0.267119
	O6743	O	0.810303	0.348508	0.328677
	O6744	O	0.700027	0.428170	0.204874
	C6745	C	0.715544	0.376497	0.286603
	C6746	C	0.657847	0.415322	0.223282
	N6747	N	0.675976	0.395279	0.253127
	O6748	O	0.624587	0.434338	0.191724
	O6749	O	0.738022	0.358175	0.316193
	C6750	C	0.599614	0.460550	0.224744
	C6751	C	0.590428	0.463878	0.207547
	C6752	C	0.598701	0.441158	0.221105
	C6753	C	0.614923	0.416718	0.249836
	C6754	C	0.623808	0.413562	0.266815
	C6755	C	0.615964	0.436241	0.253564
	H6756	H	0.578641	0.482639	0.185855
	H6757	H	0.636593	0.394627	0.289213
	C6758	C	0.621737	0.396468	0.258360
	C6759	C	0.594722	0.437508	0.210413
	N6760	N	0.611737	0.409943	0.235534
	O6761	O	0.580729	0.454069	0.185974
	O6762	O	0.632782	0.373621	0.279404
	C6763	C	0.595495	0.480589	0.217479
	C6764	C	0.623345	0.439939	0.266119
	N6765	N	0.611184	0.466843	0.243755
	O6766	O	0.636525	0.423912	0.289910
	O6767	O	0.581766	0.503915	0.194157
	C6768	C	0.818218	0.372711	0.245351
	C6769	C	0.786521	0.382705	0.225789
	C6770	C	0.793491	0.379633	0.241637
	C6771	C	0.829721	0.367163	0.274939
	C6772	C	0.861409	0.357211	0.294488
	C6773	C	0.854353	0.360484	0.278492
	H6774	H	0.758521	0.392008	0.200230
	H6775	H	0.889546	0.347513	0.320342
	C6776	C	0.827353	0.366082	0.284732
	C6777	C	0.766591	0.387241	0.228789
	N6778	N	0.789042	0.377615	0.256559
	O6779	O	0.732722	0.398978	0.200870
	O6780	O	0.852288	0.357515	0.310842
	C6781	C	0.821240	0.372715	0.236531
	C6782	C	0.881600	0.352540	0.291830
	N6783	N	0.859852	0.360701	0.265276
	O6784	O	0.915158	0.341818	0.319080
	O6785	O	0.796706	0.380921	0.210783
	C6786	C	0.681842	0.036206	0.258614
	C6787	C	0.711923	0.037176	0.274975
	C6788	C	0.701984	0.062987	0.253535
	C6789	C	0.664656	0.086268	0.218323
	C6790	C	0.634600	0.085285	0.202013
	C6791	C	0.644448	0.059493	0.223272
	H6792	H	0.740929	0.019158	0.302313
	H6793	H	0.605624	0.103296	0.174697
	C6794	C	0.664250	0.110302	0.203146
	C6795	C	0.726642	0.071274	0.261895
	N6796	N	0.702042	0.099814	0.230192
	O6797	O	0.760390	0.057107	0.289361
	O6798	O	0.637894	0.133879	0.174209
	C6799	C	0.682066	0.012168	0.273324
	C6800	C	0.619428	0.051214	0.214040
	N6801	N	0.643733	0.022723	0.245100
	O6802	O	0.585467	0.065325	0.186163
	O6803	O	0.708654	-0.011404	0.302684
	C6804	C	0.898998	0.295717	0.284745
	C6805	C	0.904641	0.272223	0.298777
	C6806	C	0.892849	0.272712	0.281965
	C6807	C	0.876568	0.295157	0.253110
	C6808	C	0.871358	0.318483	0.239415
	C6809	C	0.883039	0.318022	0.256135
	H6810	H	0.916793	0.254960	0.320821
	H6811	H	0.858689	0.335985	0.217043
	C6812	C	0.865963	0.289259	0.240710
	C6813	C	0.893626	0.251516	0.289312
	N6814	N	0.876817	0.262897	0.263425
	O6815	O	0.905859	0.229174	0.312240
	O6816	O	0.851262	0.303369	0.216589
	C6817	C	0.906484	0.302680	0.294874
	C6818	C	0.879584	0.340043	0.246833
	N6819	N	0.893811	0.329593	0.270853
	O6820	O	0.867522	0.362264	0.223944
	O6821	O	0.920205	0.288761	0.318351
	C6822	C	0.760620	0.222446	0.202791
	C6823	C	0.731269	0.223310	0.180114
	C6824	C	0.732030	0.201162	0.195250
	C6825	C	0.759478	0.180083	0.230145
	C6826	C	0.787803	0.179816	0.252168
	C6827	C	0.787994	0.201419	0.237664
	H6828	H	0.710273	0.239457	0.153214
	H6829	H	0.808772	0.163404	0.279099
	C6830	C	0.754683	0.158312	0.239367
	C6831	C	0.708317	0.193773	0.180712
	N6832	N	0.725267	0.167119	0.209512
	O6833	O	0.681133	0.206975	0.151192
	O6834	O	0.772412	0.137082	0.266641
	C6835	C	0.770873	0.241042	0.196956
	C6836	C	0.816808	0.205797	0.255393
	N6837	N	0.805568	0.229240	0.230002
	O6838	O	0.844573	0.192613	0.285070
	O6839	O	0.754098	0.261748	0.170262
	C6840	C	0.528367	0.134160	0.385272
	C6841	C	0.527987	0.120102	0.385438
	C6842	C	0.514907	0.104926	0.387569
	C6843	C	0.503098	0.103262	0.390289
	C6844	C	0.504202	0.117286	0.390516
	C6845	C	0.516486	0.133010	0.387694
	H6846	H	0.492854	0.091593	0.391759
	H6847	H	0.516455	0.144296	0.387048
	H6848	H	0.537394	0.121122	0.383680
	C6849	C	0.540736	0.187544	0.360912
	C6850	C	0.531625	0.212920	0.341999
	C6851	C	0.561689	0.214046	0.358554
	C6852	C	0.598135	0.191588	0.391310
	C6853	C	0.607006	0.166310	0.409817
	C6854	C	0.577167	0.164992	0.393713
	H6855	H	0.503461	0.230415	0.316640
	H6856	H	0.635203	0.148863	0.435179
	C6857	C	0.623479	0.199937	0.401837
	C6858	C	0.562415	0.237384	0.347130
	N6859	N	0.600562	0.227258	0.375008
	O6860	O	0.536586	0.260131	0.320453
	O6861	O	0.656533	0.186721	0.427563
	C6862	C	0.516164	0.178894	0.352145
	C6863	C	0.577115	0.141050	0.407054
	N6864	N	0.540065	0.150757	0.381425
	O6865	O	0.602597	0.118078	0.433778
	O6866	O	0.483015	0.192408	0.326153
	C6867	C	0.497320	0.084626	0.365392
	C6868	C	0.484778	0.087394	0.346744
	C6869	C	0.487340	0.065578	0.357279
	C6870	C	0.502046	0.042414	0.385031
	C6871	C	0.513951	0.039861	0.403223
	C6872	C	0.511128	0.061758	0.392517
	H6873	H	0.474120	0.105234	0.325789
	H6874	H	0.524414	0.022073	0.424033
	C6875	C	0.503061	0.022369	0.391038
	C6876	C	0.476738	0.061642	0.343376
	N6877	N	0.487502	0.035165	0.365191
	O6878	O	0.462104	0.077261	0.318804
	O6879	O	0.515075	-0.000368	0.413441
	C6880	C	0.498206	0.104147	0.360648
	C6881	C	0.521115	0.065991	0.405926
	N6882	N	0.512029	0.091948	0.385246
	O6883	O	0.533964	0.051025	0.429226
	O6884	O	0.488915	0.126079	0.340111
	C6885	C	0.982372	0.119593	0.401469
	C6886	C	0.986077	0.120671	0.412955
	C6887	C	0.955322	0.126851	0.395832
	C6888	C	0.923410	0.131188	0.369535
	C6889	C	0.919593	0.130250	0.357899
	C6890	C	0.950037	0.124536	0.374546
	H6891	H	1.010914	0.117187	0.433493
	H6892	H	0.894594	0.133904	0.337211
	C6893	C	0.896297	0.137009	0.357290
	C6894	C	0.949276	0.130388	0.400651
	N6895	N	0.912994	0.136974	0.376225
	O6896	O	0.970411	0.128411	0.420806
	O6897	O	0.866342	0.140687	0.335996
	C6898	C	1.009290	0.114107	0.413394
	C6899	C	0.954763	0.123018	0.367709
	N6900	N	0.990902	0.116640	0.391944
	O6901	O	0.932993	0.126241	0.346372
	O6902	O	1.040454	0.108553	0.436467
	C6903	C	0.618979	0.266376	0.379347
	C6904	C	0.605424	0.252483	0.375878
	C6905	C	0.615031	0.241274	0.379030
	C6906	C	0.638327	0.243366	0.386180
	C6907	C	0.651934	0.257021	0.390127
	C6908	C	0.642237	0.268800	0.386468
	H6909	H	0.645597	0.234677	0.388579
	H6910	H	0.652688	0.279489	0.389304
	H6911	H	0.587288	0.251005	0.370159
	C6912	C	0.478215	-0.008864	0.369227
	C6913	C	0.476817	0.004797	0.368613
	C6914	C	0.487190	0.021811	0.364368
	C6915	C	0.498211	0.025538	0.360209
	C6916	C	0.498759	0.011940	0.360363
	C6917	C	0.489317	-0.005618	0.365357
	H6918	H	0.506319	0.038621	0.357027
	H6919	H	0.490373	-0.016436	0.366046
	H6920	H	0.467805	0.002220	0.371310
	C6921	C	0.884857	0.159021	0.371498
	C6922	C	0.900364	0.155655	0.373942
	C6923	C	0.896205	0.141412	0.372608
	C6924	C	0.876827	0.130730	0.368847
	C6925	C	0.860618	0.135255	0.365260
	C6926	C	0.864376	0.149362	0.366495
	H6927	H	0.874140	0.119265	0.368545
	H6928	H	0.852432	0.152166	0.364538
	H6929	H	0.915552	0.163717	0.377172
	C6930	C	0.622673	0.291085	0.390808
	C6931	C	0.640781	0.291632	0.409663
	C6932	C	0.624478	0.317201	0.388637
	C6933	C	0.591611	0.340489	0.351174
	C6934	C	0.573040	0.339902	0.332182
	C6935	C	0.590098	0.314434	0.353425
	H6936	H	0.666386	0.273586	0.438746
	H6937	H	0.547913	0.358015	0.303224
	C6938	C	0.583439	0.364385	0.337684
	C6939	C	0.638782	0.325440	0.400503
	N6940	N	0.613777	0.353966	0.368868
	O6941	O	0.666272	0.311299	0.430584
	O6942	O	0.557263	0.387894	0.307011
	C6943	C	0.634554	0.267735	0.405221
	C6944	C	0.580398	0.306942	0.342727
	N6945	N	0.609197	0.278956	0.375314
	O6946	O	0.554385	0.321358	0.313016
	O6947	O	0.660484	0.244181	0.435782
	C6948	C	0.688884	0.288465	0.383349
	C6949	C	0.685829	0.310071	0.365073
	C6950	C	0.714119	0.312159	0.384040
	C6951	C	0.743749	0.293710	0.419043
	C6952	C	0.747449	0.271666	0.437734
	C6953	C	0.718894	0.269799	0.418565
	H6954	H	0.662784	0.324553	0.337836
	H6955	H	0.770149	0.257457	0.464724
	C6956	C	0.767345	0.303016	0.430134
	C6957	C	0.717923	0.333808	0.371670
	N6958	N	0.749802	0.327297	0.400289
	O6959	O	0.698314	0.353426	0.343351
	O6960	O	0.795331	0.292700	0.458216
	C6961	C	0.661624	0.281811	0.369925
	C6962	C	0.712423	0.250230	0.429182
	N6963	N	0.676296	0.259865	0.397885
	O6964	O	0.732883	0.230502	0.457989
	O6965	O	0.632747	0.292579	0.341398
	C6966	C	0.519754	0.010833	0.348428
	C6967	C	0.516897	0.008327	0.338351
	C6968	C	0.548313	0.001147	0.356545
	C6969	C	0.580283	-0.003228	0.382920
	C6970	C	0.583000	-0.000506	0.392784
	C6971	C	0.551571	0.006695	0.374576
	H6972	H	0.492329	0.011397	0.318222
	H6973	H	0.607852	-0.004040	0.413363
	C6974	C	0.608456	-0.010861	0.396937
	C6975	C	0.554785	-0.003227	0.352527
	N6976	N	0.590839	-0.009490	0.376634
	O6977	O	0.534236	-0.002033	0.333183
	O6978	O	0.640032	-0.017120	0.420718
	C6979	C	0.492453	0.016865	0.335888
	C6980	C	0.545429	0.010301	0.379279
	N6981	N	0.510240	0.015172	0.356482
	O6982	O	0.565339	0.009789	0.397867
	O6983	O	0.461536	0.022032	0.313154
	C6984	C	0.931574	0.458258	0.360478
	C6985	C	0.901990	0.456406	0.344062
	C6986	C	0.912255	0.430762	0.363598
	C6987	C	0.949460	0.408492	0.397177
	C6988	C	0.979043	0.410401	0.413533
	C6989	C	0.968841	0.436062	0.394039
	H6990	H	0.873123	0.473647	0.318036
	H6991	H	1.007919	0.393126	0.439614
	C6992	C	0.950123	0.384299	0.410425
	C6993	C	0.887944	0.421673	0.354310
	N6994	N	0.912472	0.393654	0.383652
	O6995	O	0.854453	0.434873	0.327842
	O6996	O	0.976529	0.361467	0.437789
	C6997	C	0.930434	0.482536	0.347034
	C6998	C	0.992877	0.445493	0.403097
	N6999	N	0.967948	0.473466	0.373701
	O7000	O	1.026389	0.432658	0.429444
	O7001	O	0.903766	0.505268	0.319604
	C7002	C	0.826435	0.108193	0.374984
	C7003	C	0.829131	0.094552	0.392660
	C7004	C	0.795636	0.107148	0.370015
	C7005	C	0.761522	0.131269	0.332246
	C7006	C	0.758614	0.144599	0.314504
	C7007	C	0.792374	0.132420	0.337236
	H7008	H	0.855668	0.076002	0.421980
	H7009	H	0.732363	0.163568	0.285252
	C7010	C	0.732189	0.139948	0.316748
	C7011	C	0.789379	0.099658	0.380008
	N7012	N	0.751273	0.120714	0.346947
	O7013	O	0.811633	0.080167	0.409721
	O7014	O	0.699197	0.159365	0.285360
	C7015	C	0.857357	0.102333	0.390831
	C7016	C	0.800420	0.143039	0.327704
	N7017	N	0.840256	0.125119	0.361199
	O7018	O	0.778483	0.163164	0.298064
	O7019	O	0.890394	0.082943	0.422143
	C7020	C	0.886241	0.200734	0.367247
	C7021	C	0.876197	0.223447	0.353087
	C7022	C	0.887132	0.218994	0.371953
	C7023	C	0.908253	0.193326	0.403780
	C7024	C	0.917974	0.170740	0.417752
	C7025	C	0.905758	0.175465	0.398099
	H7026	H	0.860116	0.243296	0.328588
	H7027	H	0.932628	0.151127	0.441318
	C7028	C	0.914194	0.195546	0.416499
	C7029	C	0.877180	0.238799	0.362299
	N7030	N	0.891953	0.223382	0.388771
	O7031	O	0.859476	0.262898	0.337086
	O7032	O	0.932495	0.177865	0.443758
	C7033	C	0.877488	0.197906	0.353354
	C7034	C	0.908523	0.156146	0.404025
	N7035	N	0.891485	0.170670	0.376661
	O7036	O	0.920936	0.133045	0.426319
	O7037	O	0.861568	0.214789	0.327698
	C7038	C	0.655487	0.390279	0.374710
	C7039	C	0.645148	0.401615	0.370935
	C7040	C	0.623642	0.397180	0.366019
	C7041	C	0.612947	0.381429	0.365351
	C7042	C	0.624290	0.370011	0.369799
	C7043	C	0.645364	0.374338	0.374330
	H7044	H	0.596508	0.378125	0.361661
	H7045	H	0.653493	0.365646	0.377270
	H7046	H	0.653124	0.413929	0.371218
	C7047	C	0.763279	0.374880	0.392375
	C7048	C	0.774580	0.382417	0.387220
	C7049	C	0.777808	0.371007	0.386835
	C7050	C	0.770401	0.352381	0.391809
	C7051	C	0.758969	0.345484	0.396606
	C7052	C	0.755101	0.356636	0.396780
	H7053	H	0.773067	0.343605	0.391592
	H7054	H	0.745925	0.351205	0.400270
	H7055	H	0.780417	0.396742	0.383456
	C7056	C	0.614761	-0.020818	0.371997
	C7057	C	0.602047	-0.022142	0.373859
	C7058	C	0.604122	-0.008829	0.375200
	C7059	C	0.618001	0.005957	0.374096
	C7060	C	0.630648	0.006862	0.372383
	C7061	C	0.629400	-0.006529	0.371517
	H7062	H	0.618733	0.016752	0.374260
	H7063	H	0.639541	-0.005781	0.370442
	H7064	H	0.590497	-0.033038	0.373869
	C7065	C	0.891645	0.345364	0.393292
	C7066	C	0.904043	0.361075	0.390627
	C7067	C	0.901037	0.376722	0.387407
	C7068	C	0.886444	0.376625	0.387281
	C7069	C	0.874407	0.360707	0.390115
	C7070	C	0.876548	0.345127	0.392864
	H7071	H	0.884504	0.388649	0.385041
	H7072	H	0.866991	0.333011	0.394909
	H7073	H	0.915539	0.361284	0.390835
	C7074	C	0.723983	0.148443	0.338830
	C7075	C	0.712112	0.134194	0.343638
	C7076	C	0.713058	0.115458	0.349224
	C7077	C	0.725271	0.111004	0.349793
	C7078	C	0.737205	0.125393	0.345186
	C7079	C	0.736815	0.144088	0.339797
	H7080	H	0.726483	0.096230	0.354673
	H7081	H	0.746148	0.155060	0.336277
	H7082	H	0.702952	0.137418	0.343491
	C7083	C	0.831553	0.234949	0.365463
	C7084	C	0.841663	0.245877	0.372210
	C7085	C	0.867458	0.250795	0.382725
	C7086	C	0.884106	0.244172	0.387715
	C7087	C	0.873982	0.232746	0.381477
	C7088	C	0.847452	0.228341	0.369935
	H7089	H	0.904276	0.247731	0.396201
	H7090	H	0.839804	0.219574	0.365083
	H7091	H	0.831179	0.249341	0.370973
	C7092	C	0.722330	0.383968	0.402009
	C7093	C	0.755147	0.370155	0.424622
	C7094	C	0.750927	0.380967	0.406790
	C7095	C	0.716840	0.404635	0.369064
	C7096	C	0.684267	0.418663	0.346555
	C7097	C	0.687950	0.407294	0.364217
	H7098	H	0.781701	0.351857	0.453927
	H7099	H	0.657586	0.436515	0.317335
	C7100	C	0.721795	0.409287	0.359247
	C7101	C	0.778197	0.369084	0.422226
	N7102	N	0.757990	0.385975	0.392133
	O7103	O	0.810313	0.348498	0.453692
	O7104	O	0.700032	0.428157	0.329888
	C7105	C	0.715563	0.376489	0.411624
	C7106	C	0.657859	0.415305	0.348303
	N7107	N	0.675993	0.395265	0.378150
	O7108	O	0.624598	0.434317	0.316745
	O7109	O	0.738044	0.358171	0.441215
	C7110	C	0.599608	0.460560	0.349735
	C7111	C	0.590427	0.463883	0.332544
	C7112	C	0.598700	0.441161	0.346105
	C7113	C	0.614914	0.416725	0.374830
	C7114	C	0.623794	0.413573	0.391804
	C7115	C	0.615953	0.436253	0.378552
	H7116	H	0.578645	0.482641	0.310855
	H7117	H	0.636574	0.394641	0.414199
	C7118	C	0.621728	0.396472	0.383357
	C7119	C	0.594724	0.437506	0.335418
	N7120	N	0.611744	0.409941	0.360543
	O7121	O	0.580755	0.454061	0.310995
	O7122	O	0.632762	0.373628	0.404394
	C7123	C	0.595488	0.480601	0.342468
	C7124	C	0.623331	0.439955	0.391103
	N7125	N	0.611174	0.466858	0.368740
	O7126	O	0.636509	0.423931	0.414892
	O7127	O	0.581762	0.503926	0.319147
	C7128	C	0.818211	0.372700	0.370355
	C7129	C	0.786515	0.382690	0.350797
	C7130	C	0.793486	0.379616	0.366645
	C7131	C	0.829715	0.367151	0.399944
	C7132	C	0.861401	0.357204	0.419490
	C7133	C	0.854345	0.360477	0.403494
	H7134	H	0.758515	0.391991	0.325239
	H7135	H	0.889537	0.347509	0.445342
	C7136	C	0.827348	0.366069	0.409738
	C7137	C	0.766587	0.387220	0.353801
	N7138	N	0.789039	0.377597	0.381569
	O7139	O	0.732720	0.398952	0.325886
	O7140	O	0.852282	0.357504	0.435847
	C7141	C	0.821232	0.372707	0.361533
	C7142	C	0.881591	0.352537	0.416828
	N7143	N	0.859843	0.360698	0.390274
	O7144	O	0.915149	0.341818	0.444077
	O7145	O	0.796698	0.380913	0.335786
	C7146	C	0.681806	0.036240	0.383573
	C7147	C	0.711884	0.037214	0.399931
	C7148	C	0.701939	0.063027	0.378485
	C7149	C	0.664607	0.086306	0.343269
	C7150	C	0.634555	0.085319	0.326962
	C7151	C	0.644408	0.059525	0.348227
	H7152	H	0.740892	0.019198	0.427272
	H7153	H	0.605576	0.103328	0.299644
	C7154	C	0.664195	0.110342	0.328086
	C7155	C	0.726593	0.071318	0.386841
	N7156	N	0.701988	0.099857	0.355133
	O7157	O	0.760342	0.057153	0.414308
	O7158	O	0.637834	0.133919	0.299144
	C7159	C	0.682037	0.012199	0.398289
	C7160	C	0.619393	0.051242	0.339000
	N7161	N	0.643704	0.022751	0.370065
	O7162	O	0.585432	0.065350	0.311123
	O7163	O	0.708629	-0.011372	0.427654
	C7164	C	0.898982	0.295729	0.409727
	C7165	C	0.904620	0.272238	0.423754
	C7166	C	0.892830	0.272729	0.406940
	C7167	C	0.876554	0.295175	0.378089
	C7168	C	0.871350	0.318498	0.364400
	C7169	C	0.883028	0.318035	0.381121
	H7170	H	0.916767	0.254974	0.445794
	H7171	H	0.858686	0.336001	0.342032
	C7172	C	0.865949	0.289281	0.365687
	C7173	C	0.893603	0.251537	0.414282
	N7174	N	0.876796	0.262920	0.388396
	O7175	O	0.905831	0.229196	0.437207
	O7176	O	0.851254	0.303391	0.341569
	C7177	C	0.906465	0.302689	0.419857
	C7178	C	0.879576	0.340053	0.371823
	N7179	N	0.893797	0.329601	0.395840
	O7180	O	0.867519	0.362274	0.348938
	O7181	O	0.920183	0.288769	0.443333
	C7182	C	0.760596	0.222471	0.327761
	C7183	C	0.731237	0.223340	0.305080
	C7184	C	0.731999	0.201192	0.320216
	C7185	C	0.759456	0.180107	0.355117
	C7186	C	0.787792	0.179834	0.377146
	C7187	C	0.787979	0.201438	0.362640
	H7188	H	0.710233	0.239491	0.278175
	H7189	H	0.808769	0.163417	0.404082
	C7190	C	0.754658	0.158337	0.364336
	C7191	C	0.708275	0.193809	0.305670
	N7192	N	0.725229	0.167152	0.334471
	O7193	O	0.681080	0.207018	0.276143
	O7194	O	0.772393	0.137103	0.391613
	C7195	C	0.770847	0.241068	0.321924
	C7196	C	0.816797	0.205814	0.380370
	N7197	N	0.805548	0.229263	0.354974
	O7198	O	0.844571	0.192625	0.410053
	O7199	O	0.754066	0.261777	0.295226
	C7200	C	0.528315	0.134205	0.510208
	C7201	C	0.527937	0.120145	0.510376
	C7202	C	0.514863	0.104965	0.512515
	C7203	C	0.503056	0.103301	0.515236
	C7204	C	0.504160	0.117328	0.515461
	C7205	C	0.516439	0.133054	0.512635
	H7206	H	0.492816	0.091630	0.516711
	H7207	H	0.516408	0.144341	0.511987
	H7208	H	0.537342	0.121165	0.508617
	C7209	C	0.540662	0.187599	0.485821
	C7210	C	0.531540	0.212980	0.466895
	C7211	C	0.561599	0.214111	0.483444
	C7212	C	0.598050	0.191654	0.516206
	C7213	C	0.606932	0.166372	0.534726
	C7214	C	0.577098	0.165048	0.518628
	H7215	H	0.503371	0.230475	0.441530
	H7216	H	0.635134	0.148925	0.560093
	C7217	C	0.623386	0.200010	0.526724
	C7218	C	0.562313	0.237457	0.472005
	N7219	N	0.600458	0.227335	0.499880
	O7220	O	0.536476	0.260205	0.445318
	O7221	O	0.656443	0.186795	0.552452
	C7222	C	0.516097	0.178945	0.477063
	C7223	C	0.577056	0.141102	0.531981
	N7224	N	0.540007	0.150806	0.506354
	O7225	O	0.602545	0.118128	0.558712
	O7226	O	0.482946	0.192456	0.451070
	C7227	C	0.497283	0.084653	0.490351
	C7228	C	0.484741	0.087417	0.471705
	C7229	C	0.487313	0.065596	0.482250
	C7230	C	0.502027	0.042433	0.510007
	C7231	C	0.513930	0.039884	0.528196
	C7232	C	0.511098	0.061785	0.517481
	H7233	H	0.474076	0.105257	0.450745
	H7234	H	0.524400	0.022095	0.549011
	C7235	C	0.503052	0.022382	0.516024
	C7236	C	0.476711	0.061656	0.468350
	N7237	N	0.487494	0.035174	0.490180
	O7238	O	0.462091	0.077269	0.443788
	O7239	O	0.515073	-0.000356	0.538433
	C7240	C	0.498164	0.104178	0.485600
	C7241	C	0.521082	0.066023	0.530885
	N7242	N	0.511989	0.091983	0.510198
	O7243	O	0.533934	0.051058	0.554186
	O7244	O	0.488869	0.126111	0.465059
	C7245	C	0.982359	0.119610	0.526447
	C7246	C	0.986083	0.120669	0.537956
	C7247	C	0.955331	0.126847	0.520837
	C7248	C	0.923405	0.131203	0.494522
	C7249	C	0.919570	0.130284	0.482864
	C7250	C	0.950011	0.124570	0.499508
	H7251	H	1.010930	0.117170	0.558508
	H7252	H	0.894560	0.133952	0.462163
	C7253	C	0.896299	0.137021	0.482286
	C7254	C	0.949306	0.130364	0.525682
	N7255	N	0.913016	0.136966	0.501244
	O7256	O	0.970448	0.128382	0.545843
	O7257	O	0.866336	0.140711	0.460980
	C7258	C	1.009268	0.114129	0.538363
	C7259	C	0.954722	0.123066	0.492654
	N7260	N	0.990865	0.116679	0.516894
	O7261	O	0.932940	0.126303	0.471302
	O7262	O	1.040438	0.108567	0.561442
	C7263	C	0.618851	0.266470	0.504192
	C7264	C	0.605302	0.252574	0.500729
	C7265	C	0.614916	0.241360	0.503890
	C7266	C	0.638213	0.243450	0.511041
	C7267	C	0.651814	0.257110	0.514981
	C7268	C	0.642110	0.268894	0.511314
	H7269	H	0.645492	0.234756	0.513449
	H7270	H	0.652558	0.279585	0.514146
	H7271	H	0.587166	0.251095	0.495009
	C7272	C	0.478224	-0.008865	0.494234
	C7273	C	0.476821	0.004799	0.493613
	C7274	C	0.487190	0.021815	0.489364
	C7275	C	0.498215	0.025540	0.485209
	C7276	C	0.498769	0.011938	0.485370
	C7277	C	0.489331	-0.005622	0.490368
	H7278	H	0.506321	0.038624	0.482026
	H7279	H	0.490390	-0.016443	0.491060
	H7280	H	0.467806	0.002224	0.496308
	C7281	C	0.884909	0.158984	0.496555
	C7282	C	0.900404	0.155628	0.498984
	C7283	C	0.896242	0.141391	0.497645
	C7284	C	0.876874	0.130701	0.493894
	C7285	C	0.860678	0.135213	0.490323
	C7286	C	0.864437	0.149317	0.491562
	H7287	H	0.874185	0.119239	0.493588
	H7288	H	0.852502	0.152112	0.489617
	H7289	H	0.915584	0.163696	0.502207
	C7290	C	0.622559	0.291161	0.515674
	C7291	C	0.640672	0.291696	0.534540
	C7292	C	0.624384	0.317261	0.513528
	C7293	C	0.591526	0.340557	0.476067
	C7294	C	0.572950	0.339982	0.457063
	C7295	C	0.589993	0.314518	0.478292
	H7296	H	0.666271	0.273645	0.563623
	H7297	H	0.547830	0.358101	0.428107
	C7298	C	0.583371	0.364444	0.462595
	C7299	C	0.638699	0.325486	0.525410
	N7300	N	0.613709	0.354013	0.493787
	O7301	O	0.666185	0.311336	0.555495
	O7302	O	0.557207	0.387957	0.431928
	C7303	C	0.634426	0.267818	0.530073
	C7304	C	0.580286	0.307037	0.467583
	N7305	N	0.609071	0.279049	0.500161
	O7306	O	0.554278	0.321461	0.437869
	O7307	O	0.660346	0.244261	0.560628
	C7308	C	0.688804	0.288534	0.508245
	C7309	C	0.685769	0.310133	0.489985
	C7310	C	0.714070	0.312209	0.508967
	C7311	C	0.743691	0.293754	0.543969
	C7312	C	0.747371	0.271716	0.562645
	C7313	C	0.718807	0.269861	0.543460
	H7314	H	0.662731	0.324620	0.462749
	H7315	H	0.770065	0.257503	0.589633
	C7316	C	0.767300	0.303047	0.555078
	C7317	C	0.717896	0.333847	0.496619
	N7318	N	0.749774	0.327327	0.525245
	O7319	O	0.698303	0.353465	0.468309
	O7320	O	0.795283	0.292724	0.583164
	C7321	C	0.661529	0.281893	0.494801
	C7322	C	0.712317	0.250300	0.554058
	N7323	N	0.676187	0.259948	0.522751
	O7324	O	0.732766	0.230571	0.582860
	O7325	O	0.632651	0.292672	0.466267
	C7326	C	0.519771	0.010819	0.473447
	C7327	C	0.516919	0.008306	0.463376
	C7328	C	0.548336	0.001123	0.481574
	C7329	C	0.580305	-0.003248	0.507945
	C7330	C	0.583017	-0.000520	0.517802
	C7331	C	0.551587	0.006684	0.499591
	H7332	H	0.492352	0.011373	0.443251
	H7333	H	0.607868	-0.004052	0.538379
	C7334	C	0.608479	-0.010884	0.521965
	C7335	C	0.554814	-0.003260	0.477564
	N7336	N	0.590862	-0.009515	0.501664
	O7337	O	0.534259	-0.002058	0.458212
	O7338	O	0.640055	-0.017144	0.545745
	C7339	C	0.492467	0.016856	0.460902
	C7340	C	0.545440	0.010297	0.504288
	N7341	N	0.510252	0.015167	0.481491
	O7342	O	0.565347	0.009790	0.522871
	O7343	O	0.461551	0.022021	0.438169
	C7344	C	0.931585	0.458255	0.485486
	C7345	C	0.902001	0.456403	0.469068
	C7346	C	0.912267	0.430759	0.488604
	C7347	C	0.949472	0.408489	0.522185
	C7348	C	0.979056	0.410398	0.538542
	C7349	C	0.968854	0.436058	0.519048
	H7350	H	0.873133	0.473644	0.443040
	H7351	H	1.007932	0.393123	0.564624
	C7352	C	0.950135	0.384296	0.535433
	C7353	C	0.887956	0.421669	0.479316
	N7354	N	0.912482	0.393651	0.508655
	O7355	O	0.854460	0.434873	0.452837
	O7356	O	0.976542	0.361463	0.562798
	C7357	C	0.930444	0.482533	0.472042
	C7358	C	0.992889	0.445490	0.528107
	N7359	N	0.967959	0.473463	0.498710
	O7360	O	1.026402	0.432655	0.554455
	O7361	O	0.903776	0.505265	0.444610
	C7362	C	0.826510	0.108141	0.500063
	C7363	C	0.829209	0.094503	0.517740
	C7364	C	0.795712	0.107095	0.495095
	C7365	C	0.761594	0.131209	0.457324
	C7366	C	0.758683	0.144537	0.439581
	C7367	C	0.792445	0.132362	0.462314
	H7368	H	0.855749	0.075958	0.547060
	H7369	H	0.732428	0.163501	0.410329
	C7370	C	0.732258	0.139886	0.441824
	C7371	C	0.789454	0.099606	0.505087
	N7372	N	0.751345	0.120659	0.472024
	O7373	O	0.811718	0.080129	0.534802
	O7374	O	0.699261	0.159296	0.410436
	C7375	C	0.857431	0.102286	0.515907
	C7376	C	0.800488	0.142983	0.452779
	N7377	N	0.840325	0.125070	0.486271
	O7378	O	0.778547	0.163105	0.423137
	O7379	O	0.890471	0.082900	0.547220
	C7380	C	0.886298	0.200692	0.492312
	C7381	C	0.876257	0.223404	0.478154
	C7382	C	0.887186	0.218951	0.497017
	C7383	C	0.908298	0.193284	0.528839
	C7384	C	0.918017	0.170698	0.542808
	C7385	C	0.905808	0.175424	0.523159
	H7386	H	0.860182	0.243253	0.453658
	H7387	H	0.932664	0.151086	0.566369
	C7388	C	0.914233	0.195504	0.541553
	C7389	C	0.877234	0.238756	0.487363
	N7390	N	0.891997	0.223340	0.513828
	O7391	O	0.859537	0.262854	0.462154
	O7392	O	0.932524	0.177823	0.568807
	C7393	C	0.877548	0.197865	0.478419
	C7394	C	0.908571	0.156107	0.529082
	N7395	N	0.891538	0.170631	0.501721
	O7396	O	0.920979	0.133006	0.551372
	O7397	O	0.861635	0.214747	0.452768
	C7398	C	0.655462	0.390295	0.499680
	C7399	C	0.645136	0.401622	0.495919
	C7400	C	0.623624	0.397190	0.490997
	C7401	C	0.612911	0.381452	0.490308
	C7402	C	0.624241	0.370044	0.494741
	C7403	C	0.645321	0.374367	0.499279
	H7404	H	0.596466	0.378152	0.486612
	H7405	H	0.653442	0.365681	0.502209
	H7406	H	0.653127	0.413926	0.496219
	C7407	C	0.763270	0.374895	0.517358
	C7408	C	0.774579	0.382430	0.512210
	C7409	C	0.777808	0.371024	0.511821
	C7410	C	0.770394	0.352402	0.516787
	C7411	C	0.758952	0.345508	0.521576
	C7412	C	0.755083	0.356656	0.521751
	H7413	H	0.773060	0.343629	0.516568
	H7414	H	0.745901	0.351227	0.525234
	H7415	H	0.780421	0.396753	0.508452
	C7416	C	0.614776	-0.020837	0.497017
	C7417	C	0.602064	-0.022163	0.498881
	C7418	C	0.604144	-0.008853	0.500227
	C7419	C	0.618026	0.005931	0.499126
	C7420	C	0.630671	0.006837	0.497412
	C7421	C	0.629417	-0.006549	0.496540
	H7422	H	0.618762	0.016724	0.499294
	H7423	H	0.639557	-0.005801	0.495463
	H7424	H	0.590514	-0.033058	0.498890
	C7425	C	0.891657	0.345359	0.518300
	C7426	C	0.904055	0.361070	0.515635
	C7427	C	0.901047	0.376720	0.512412
	C7428	C	0.886454	0.376625	0.512283
	C7429	C	0.874417	0.360706	0.515119
	C7430	C	0.876559	0.345124	0.517870
	H7431	H	0.884511	0.388651	0.510040
	H7432	H	0.867003	0.333008	0.519917
	H7433	H	0.915552	0.361277	0.515844
	C7434	C	0.724031	0.148403	0.463881
	C7435	C	0.712162	0.134153	0.468691
	C7436	C	0.713115	0.115414	0.474285
	C7437	C	0.725336	0.110955	0.474862
	C7438	C	0.737270	0.125343	0.470255
	C7439	C	0.736870	0.144043	0.464856
	H7440	H	0.726553	0.096177	0.479748
	H7441	H	0.746202	0.155017	0.461334
	H7442	H	0.702995	0.137383	0.468537
	C7443	C	0.831578	0.234922	0.490498
	C7444	C	0.841685	0.245852	0.497241
	C7445	C	0.867484	0.250768	0.507761
	C7446	C	0.884139	0.244138	0.512760
	C7447	C	0.874020	0.232708	0.506527
	C7448	C	0.847486	0.228307	0.494980
	H7449	H	0.904312	0.247695	0.521250
	H7450	H	0.839840	0.219538	0.490130
	H7451	H	0.831196	0.249320	0.495998
	C7452	C	0.722315	0.383977	0.526990
	C7453	C	0.755131	0.370161	0.549605
	C7454	C	0.750915	0.380974	0.531775
	C7455	C	0.716832	0.404647	0.494048
	C7456	C	0.684259	0.418678	0.471539
	C7457	C	0.687939	0.407308	0.489198
	H7458	H	0.781682	0.351859	0.578909
	H7459	H	0.657581	0.436534	0.442318
	C7460	C	0.721788	0.409299	0.484232
	C7461	C	0.778184	0.369089	0.547210
	N7462	N	0.757982	0.385986	0.517119
	O7463	O	0.810303	0.348508	0.578677
	O7464	O	0.700027	0.428170	0.454874
	C7465	C	0.715544	0.376497	0.536603
	C7466	C	0.657847	0.415322	0.473282
	N7467	N	0.675976	0.395279	0.503127
	O7468	O	0.624587	0.434338	0.441724
	O7469	O	0.738022	0.358175	0.566193
	C7470	C	0.599614	0.460550	0.474744
	C7471	C	0.590428	0.463878	0.457547
	C7472	C	0.598701	0.441158	0.471105
	C7473	C	0.614923	0.416718	0.499836
	C7474	C	0.623808	0.413562	0.516815
	C7475	C	0.615964	0.436241	0.503564
	H7476	H	0.578641	0.482639	0.435855
	H7477	H	0.636593	0.394627	0.539213
	C7478	C	0.621737	0.396468	0.508360
	C7479	C	0.594722	0.437508	0.460413
	N7480	N	0.611737	0.409943	0.485534
	O7481	O	0.580729	0.454069	0.435974
	O7482	O	0.632782	0.373621	0.529404
	C7483	C	0.595495	0.480589	0.467479
	C7484	C	0.623345	0.439939	0.516119
	N7485	N	0.611184	0.466843	0.493755
	O7486	O	0.636525	0.423912	0.539910
	O7487	O	0.581766	0.503915	0.444157
	C7488	C	0.818218	0.372711	0.495351
	C7489	C	0.786521	0.382705	0.475789
	C7490	C	0.793491	0.379633	0.491637
	C7491	C	0.829721	0.367163	0.524939
	C7492	C	0.861409	0.357211	0.544488
	C7493	C	0.854353	0.360484	0.528492
	H7494	H	0.758521	0.392008	0.450230
	H7495	H	0.889546	0.347513	0.570342
	C7496	C	0.827353	0.366082	0.534732
	C7497	C	0.766591	0.387241	0.478789
	N7498	N	0.789042	0.377615	0.506559
	O7499	O	0.732722	0.398978	0.450870
	O7500	O	0.852288	0.357515	0.560842
	C7501	C	0.821240	0.372715	0.486531
	C7502	C	0.881600	0.352540	0.541830
	N7503	N	0.859852	0.360701	0.515276
	O7504	O	0.915158	0.341818	0.569080
	O7505	O	0.796706	0.380921	0.460783
	C7506	C	0.681842	0.036206	0.508614
	C7507	C	0.711923	0.037176	0.524975
	C7508	C	0.701984	0.062987	0.503535
	C7509	C	0.664656	0.086268	0.468323
	C7510	C	0.634600	0.085285	0.452013
	C7511	C	0.644448	0.059493	0.473272
	H7512	H	0.740929	0.019158	0.552313
	H7513	H	0.605624	0.103296	0.424697
	C7514	C	0.664250	0.110302	0.453146
	C7515	C	0.726642	0.071274	0.511895
	N7516	N	0.702042	0.099814	0.480192
	O7517	O	0.760390	0.057107	0.539361
	O7518	O	0.637894	0.133879	0.424209
	C7519	C	0.682066	0.012168	0.523324
	C7520	C	0.619428	0.051214	0.464040
	N7521	N	0.643733	0.022723	0.495100
	O7522	O	0.585467	0.065325	0.436163
	O7523	O	0.708654	-0.011404	0.552684
	C7524	C	0.898998	0.295717	0.534745
	C7525	C	0.904641	0.272223	0.548777
	C7526	C	0.892849	0.272712	0.531965
	C7527	C	0.876568	0.295157	0.503110
	C7528	C	0.871358	0.318483	0.489415
	C7529	C	0.883039	0.318022	0.506135
	H7530	H	0.916793	0.254960	0.570821
	H7531	H	0.858689	0.335985	0.467043
	C7532	C	0.865963	0.289259	0.490710
	C7533	C	0.893626	0.251516	0.539312
	N7534	N	0.876817	0.262897	0.513425
	O7535	O	0.905859	0.229174	0.562240
	O7536	O	0.851262	0.303369	0.466589
	C7537	C	0.906484	0.302680	0.544874
	C7538	C	0.879584	0.340043	0.496833
	N7539	N	0.893811	0.329593	0.520853
	O7540	O	0.867522	0.362264	0.473944
	O7541	O	0.920205	0.288761	0.568351
	C7542	C	0.760620	0.222446	0.452791
	C7543	C	0.731269	0.223310	0.430114
	C7544	C	0.732030	0.201162	0.445250
	C7545	C	0.759478	0.180083	0.480145
	C7546	C	0.787803	0.179816	0.502168
	C7547	C	0.787994	0.201419	0.487664
	H7548	H	0.710273	0.239457	0.403214
	H7549	H	0.808772	0.163404	0.529099
	C7550	C	0.754683	0.158312	0.489367
	C7551	C	0.708317	0.193773	0.430712
	N7552	N	0.725267	0.167119	0.459512
	O7553	O	0.681133	0.206975	0.401192
	O7554	O	0.772412	0.137082	0.516641
	C7555	C	0.770873	0.241042	0.446956
	C7556	C	0.816808	0.205797	0.505393
	N7557	N	0.805568	0.229240	0.480002
	O7558	O	0.844573	0.192613	0.535070
	O7559	O	0.754098	0.261748	0.420262
	C7560	C	0.528367	0.134160	0.635272
	C7561	C	0.527987	0.120102	0.635438
	C7562	C	0.514907	0.104926	0.637569
	C7563	C	0.503098	0.103262	0.640289
	C7564	C	0.504202	0.117286	0.640516
	C7565	C	0.516486	0.133010	0.637694
	H7566	H	0.492854	0.091593	0.641759
	H7567	H	0.516455	0.144296	0.637048
	H7568	H	0.537394	0.121122	0.633680
	C7569	C	0.540736	0.187544	0.610912
	C7570	C	0.531625	0.212920	0.591999
	C7571	C	0.561689	0.214046	0.608554
	C7572	C	0.598135	0.191588	0.641310
	C7573	C	0.607006	0.166310	0.659817
	C7574	C	0.577167	0.164992	0.643713
	H7575	H	0.503461	0.230415	0.566640
	H7576	H	0.635203	0.148863	0.685179
	C7577	C	0.623479	0.199937	0.651837
	C7578	C	0.562415	0.237384	0.597130
	N7579	N	0.600562	0.227258	0.625008
	O7580	O	0.536586	0.260131	0.570453
	O7581	O	0.656533	0.186721	0.677563
	C7582	C	0.516164	0.178894	0.602145
	C7583	C	0.577115	0.141050	0.657054
	N7584	N	0.540065	0.150757	0.631425
	O7585	O	0.602597	0.118078	0.683778
	O7586	O	0.483015	0.192408	0.576153
	C7587	C	0.497320	0.084626	0.615392
	C7588	C	0.484778	0.087394	0.596744
	C7589	C	0.487340	0.065578	0.607279
	C7590	C	0.502046	0.042414	0.635031
	C7591	C	0.513951	0.039861	0.653223
	C7592	C	0.511128	0.061758	0.642517
	H7593	H	0.474120	0.105234	0.575789
	H7594	H	0.524414	0.022073	0.674033
	C7595	C	0.503061	0.022369	0.641038
	C7596	C	0.476738	0.061642	0.593376
	N7597	N	0.487502	0.035165	0.615191
	O7598	O	0.462104	0.077261	0.568804
	O7599	O	0.515075	-0.000368	0.663441
	C7600	C	0.498206	0.104147	0.610648
	C7601	C	0.521115	0.065991	0.655926
	N7602	N	0.512029	0.091948	0.635246
	O7603	O	0.533964	0.051025	0.679226
	O7604	O	0.488915	0.126079	0.590111
	C7605	C	0.982372	0.119593	0.651469
	C7606	C	0.986077	0.120671	0.662955
	C7607	C	0.955322	0.126851	0.645832
	C7608	C	0.923410	0.131188	0.619535
	C7609	C	0.919593	0.130250	0.607899
	C7610	C	0.950037	0.124536	0.624546
	H7611	H	1.010914	0.117187	0.683493
	H7612	H	0.894594	0.133904	0.587211
	C7613	C	0.896297	0.137009	0.607290
	C7614	C	0.949276	0.130388	0.650651
	N7615	N	0.912994	0.136974	0.626225
	O7616	O	0.970411	0.128411	0.670806
	O7617	O	0.866342	0.140687	0.585996
	C7618	C	1.009290	0.114107	0.663394
	C7619	C	0.954763	0.123018	0.617709
	N7620	N	0.990902	0.116640	0.641944
	O7621	O	0.932993	0.126241	0.596372
	O7622	O	1.040454	0.108553	0.686467
	C7623	C	0.618979	0.266376	0.629347
	C7624	C	0.605424	0.252483	0.625878
	C7625	C	0.615031	0.241274	0.629030
	C7626	C	0.638327	0.243366	0.636180
	C7627	C	0.651934	0.257021	0.640127
	C7628	C	0.642237	0.268800	0.636468
	H7629	H	0.645597	0.234677	0.638579
	H7630	H	0.652688	0.279489	0.639304
	H7631	H	0.587288	0.251005	0.620159
	C7632	C	0.478215	-0.008864	0.619227
	C7633	C	0.476817	0.004797	0.618613
	C7634	C	0.487190	0.021811	0.614368
	C7635	C	0.498211	0.025538	0.610209
	C7636	C	0.498759	0.011940	0.610363
	C7637	C	0.489317	-0.005618	0.615357
	H7638	H	0.506319	0.038621	0.607027
	H7639	H	0.490373	-0.016436	0.616046
	H7640	H	0.467805	0.002220	0.621310
	C7641	C	0.884857	0.159021	0.621498
	C7642	C	0.900364	0.155655	0.623942
	C7643	C	0.896205	0.141412	0.622608
	C7644	C	0.876827	0.130730	0.618847
	C7645	C	0.860618	0.135255	0.615260
	C7646	C	0.864376	0.149362	0.616495
	H7647	H	0.874140	0.119265	0.618545
	H7648	H	0.852432	0.152166	0.614538
	H7649	H	0.915552	0.163717	0.627172
	C7650	C	0.622673	0.291085	0.640808
	C7651	C	0.640781	0.291632	0.659663
	C7652	C	0.624478	0.317201	0.638637
	C7653	C	0.591611	0.340489	0.601174
	C7654	C	0.573040	0.339902	0.582182
	C7655	C	0.590098	0.314434	0.603425
	H7656	H	0.666386	0.273586	0.688746
	H7657	H	0.547913	0.358015	0.553224
	C7658	C	0.583439	0.364385	0.587684
	C7659	C	0.638782	0.325440	0.650503
	N7660	N	0.613777	0.353966	0.618868
	O7661	O	0.666272	0.311299	0.680584
	O7662	O	0.557263	0.387894	0.557011
	C7663	C	0.634554	0.267735	0.655221
	C7664	C	0.580398	0.306942	0.592727
	N7665	N	0.609197	0.278956	0.625314
	O7666	O	0.554385	0.321358	0.563016
	O7667	O	0.660484	0.244181	0.685782
	C7668	C	0.688884	0.288465	0.633349
	C7669	C	0.685829	0.310071	0.615073
	C7670	C	0.714119	0.312159	0.634040
	C7671	C	0.743749	0.293710	0.669043
	C7672	C	0.747449	0.271666	0.687734
	C7673	C	0.718894	0.269799	0.668565
	H7674	H	0.662784	0.324553	0.587836
	H7675	H	0.770149	0.257457	0.714724
	C7676	C	0.767345	0.303016	0.680134
	C7677	C	0.717923	0.333808	0.621670
	N7678	N	0.749802	0.327297	0.650289
	O7679	O	0.698314	0.353426	0.593351
	O7680	O	0.795331	0.292700	0.708216
	C7681	C	0.661624	0.281811	0.619925
	C7682	C	0.712423	0.250230	0.679182
	N7683	N	0.676296	0.259865	0.647885
	O7684	O	0.732883	0.230502	0.707989
	O7685	O	0.632747	0.292579	0.591398
	C7686	C	0.519754	0.010833	0.598428
	C7687	C	0.516897	0.008327	0.588351
	C7688	C	0.548313	0.001147	0.606545
	C7689	C	0.580283	-0.003228	0.632920
	C7690	C	0.583000	-0.000506	0.642784
	C7691	C	0.551571	0.006695	0.624576
	H7692	H	0.492329	0.011397	0.568222
	H7693	H	0.607852	-0.004040	0.663363
	C7694	C	0.608456	-0.010861	0.646937
	C7695	C	0.554785	-0.003227	0.602527
	N7696	N	0.590839	-0.009490	0.626634
	O7697	O	0.534236	-0.002033	0.583183
	O7698	O	0.640032	-0.017120	0.670718
	C7699	C	0.492453	0.016865	0.585888
	C7700	C	0.545429	0.010301	0.629279
	N7701	N	0.510240	0.015172	0.606482
	O7702	O	0.565339	0.009789	0.647867
	O7703	O	0.461536	0.022032	0.563154
	C7704	C	0.931574	0.458258	0.610478
	C7705	C	0.901990	0.456406	0.594062
	C7706	C	0.912255	0.430762	0.613598
	C7707	C	0.949460	0.408492	0.647177
	C7708	C	0.979043	0.410401	0.663533
	C7709	C	0.968841	0.436062	0.644039
	H7710	H	0.873123	0.473647	0.568036
	H7711	H	1.007919	0.393126	0.689614
	C7712	C	0.950123	0.384299	0.660425
	C7713	C	0.887944	0.421673	0.604310
	N7714	N	0.912472	0.393654	0.633652
	O7715	O	0.854453	0.434873	0.577842
	O7716	O	0.976529	0.361467	0.687789
	C7717	C	0.930434	0.482536	0.597034
	C7718	C	0.992877	0.445493	0.653097
	N7719	N	0.967948	0.473466	0.623701
	O7720	O	1.026389	0.432658	0.679444
	O7721	O	0.903766	0.505268	0.569604
	C7722	C	0.826435	0.108193	0.624984
	C7723	C	0.829131	0.094552	0.642660
	C7724	C	0.795636	0.107148	0.620015
	C7725	C	0.761522	0.131269	0.582246
	C7726	C	0.758614	0.144599	0.564504
	C7727	C	0.792374	0.132420	0.587236
	H7728	H	0.855668	0.076002	0.671980
	H7729	H	0.732363	0.163568	0.535252
	C7730	C	0.732189	0.139948	0.566748
	C7731	C	0.789379	0.099658	0.630008
	N7732	N	0.751273	0.120714	0.596947
	O7733	O	0.811633	0.080167	0.659721
	O7734	O	0.699197	0.159365	0.535360
	C7735	C	0.857357	0.102333	0.640831
	C7736	C	0.800420	0.143039	0.577704
	N7737	N	0.840256	0.125119	0.611199
	O7738	O	0.778483	0.163164	0.548064
	O7739	O	0.890394	0.082943	0.672143
	C7740	C	0.886241	0.200734	0.617247
	C7741	C	0.876197	0.223447	0.603087
	C7742	C	0.887132	0.218994	0.621953
	C7743	C	0.908253	0.193326	0.653780
	C7744	C	0.917974	0.170740	0.667752
	C7745	C	0.905758	0.175465	0.648099
	H7746	H	0.860116	0.243296	0.578588
	H7747	H	0.932628	0.151127	0.691318
	C7748	C	0.914194	0.195546	0.666499
	C7749	C	0.877180	0.238799	0.612299
	N7750	N	0.891953	0.223382	0.638771
	O7751	O	0.859476	0.262898	0.587086
	O7752	O	0.932495	0.177865	0.693758
	C7753	C	0.877488	0.197906	0.603354
	C7754	C	0.908523	0.156146	0.654025
	N7755	N	0.891485	0.170670	0.626661
	O7756	O	0.920936	0.133045	0.676319
	O7757	O	0.861568	0.214789	0.577698
	C7758	C	0.655487	0.390279	0.624710
	C7759	C	0.645148	0.401615	0.620935
	C7760	C	0.623642	0.397180	0.616019
	C7761	C	0.612947	0.381429	0.615351
	C7762	C	0.624290	0.370011	0.619799
	C7763	C	0.645364	0.374338	0.624330
	H7764	H	0.596508	0.378125	0.611661
	H7765	H	0.653493	0.365646	0.627270
	H7766	H	0.653124	0.413929	0.621218
	C7767	C	0.763279	0.374880	0.642375
	C7768	C	0.774580	0.382417	0.637220
	C7769	C	0.777808	0.371007	0.636835
	C7770	C	0.770401	0.352381	0.641809
	C7771	C	0.758969	0.345484	0.646606
	C7772	C	0.755101	0.356636	0.646780
	H7773	H	0.773067	0.343605	0.641592
	H7774	H	0.745925	0.351205	0.650270
	H7775	H	0.780417	0.396742	0.633456
	C7776	C	0.614761	-0.020818	0.621997
	C7777	C	0.602047	-0.022142	0.623859
	C7778	C	0.604122	-0.008829	0.625200
	C7779	C	0.618001	0.005957	0.624096
	C7780	C	0.630648	0.006862	0.622383
	C7781	C	0.629400	-0.006529	0.621517
	H7782	H	0.618733	0.016752	0.624260
	H7783	H	0.639541	-0.005781	0.620442
	H7784	H	0.590497	-0.033038	0.623869
	C7785	C	0.891645	0.345364	0.643292
	C7786	C	0.904043	0.361075	0.640627
	C7787	C	0.901037	0.376722	0.637407
	C7788	C	0.886444	0.376625	0.637281
	C7789	C	0.874407	0.360707	0.640115
	C7790	C	0.876548	0.345127	0.642864
	H7791	H	0.884504	0.388649	0.635041
	H7792	H	0.866991	0.333011	0.644909
	H7793	H	0.915539	0.361284	0.640835
	C7794	C	0.723983	0.148443	0.588830
	C7795	C	0.712112	0.134194	0.593638
	C7796	C	0.713058	0.115458	0.599224
	C7797	C	0.725271	0.111004	0.599793
	C7798	C	0.737205	0.125393	0.595186
	C7799	C	0.736815	0.144088	0.589797
	H7800	H	0.726483	0.096230	0.604673
	H7801	H	0.746148	0.155060	0.586277
	H7802	H	0.702952	0.137418	0.593491
	C7803	C	0.831553	0.234949	0.615463
	C7804	C	0.841663	0.245877	0.622210
	C7805	C	0.867458	0.250795	0.632725
	C7806	C	0.884106	0.244172	0.637715
	C7807	C	0.873982	0.232746	0.631477
	C7808	C	0.847452	0.228341	0.619935
	H7809	H	0.904276	0.247731	0.646201
	H7810	H	0.839804	0.219574	0.615083
	H7811	H	0.831179	0.249341	0.620973
	C7812	C	0.722330	0.383968	0.652009
	C7813	C	0.755147	0.370155	0.674622
	C7814	C	0.750927	0.380967	0.656790
	C7815	C	0.716840	0.404635	0.619064
	C7816	C	0.684267	0.418663	0.596555
	C7817	C	0.687950	0.407294	0.614217
	H7818	H	0.781701	0.351857	0.703927
	H7819	H	0.657586	0.436515	0.567335
	C7820	C	0.721795	0.409287	0.609247
	C7821	C	0.778197	0.369084	0.672226
	N7822	N	0.757990	0.385975	0.642133
	O7823	O	0.810313	0.348498	0.703692
	O7824	O	0.700032	0.428157	0.579888
	C7825	C	0.715563	0.376489	0.661624
	C7826	C	0.657859	0.415305	0.598303
	N7827	N	0.675993	0.395265	0.628150
	O7828	O	0.624598	0.434317	0.566745
	O7829	O	0.738044	0.358171	0.691215
	C7830	C	0.599608	0.460560	0.599735
	C7831	C	0.590427	0.463883	0.582544
	C7832	C	0.598700	0.441161	0.596105
	C7833	C	0.614914	0.416725	0.624830
	C7834	C	0.623794	0.413573	0.641804
	C7835	C	0.615953	0.436253	0.628552
	H7836	H	0.578645	0.482641	0.560855
	H7837	H	0.636574	0.394641	0.664199
	C7838	C	0.621728	0.396472	0.633357
	C7839	C	0.594724	0.437506	0.585418
	N7840	N	0.611744	0.409941	0.610543
	O7841	O	0.580755	0.454061	0.560995
	O7842	O	0.632762	0.373628	0.654394
	C7843	C	0.595488	0.480601	0.592468
	C7844	C	0.623331	0.439955	0.641103
	N7845	N	0.611174	0.466858	0.618740
	O7846	O	0.636509	0.423931	0.664892
	O7847	O	0.581762	0.503926	0.569147
	C7848	C	0.818211	0.372700	0.620355
	C7849	C	0.786515	0.382690	0.600797
	C7850	C	0.793486	0.379616	0.616645
	C7851	C	0.829715	0.367151	0.649944
	C7852	C	0.861401	0.357204	0.669490
	C7853	C	0.854345	0.360477	0.653494
	H7854	H	0.758515	0.391991	0.575239
	H7855	H	0.889537	0.347509	0.695342
	C7856	C	0.827348	0.366069	0.659738
	C7857	C	0.766587	0.387220	0.603801
	N7858	N	0.789039	0.377597	0.631569
	O7859	O	0.732720	0.398952	0.575886
	O7860	O	0.852282	0.357504	0.685847
	C7861	C	0.821232	0.372707	0.611533
	C7862	C	0.881591	0.352537	0.666828
	N7863	N	0.859843	0.360698	0.640274
	O7864	O	0.915149	0.341818	0.694077
	O7865	O	0.796698	0.380913	0.585786
	C7866	C	0.681806	0.036240	0.633573
	C7867	C	0.711884	0.037214	0.649931
	C7868	C	0.701939	0.063027	0.628485
	C7869	C	0.664607	0.086306	0.593269
	C7870	C	0.634555	0.085319	0.576962
	C7871	C	0.644408	0.059525	0.598227
	H7872	H	0.740892	0.019198	0.677272
	H7873	H	0.605576	0.103328	0.549644
	C7874	C	0.664195	0.110342	0.578086
	C7875	C	0.726593	0.071318	0.636841
	N7876	N	0.701988	0.099857	0.605133
	O7877	O	0.760342	0.057153	0.664308
	O7878	O	0.637834	0.133919	0.549144
	C7879	C	0.682037	0.012199	0.648289
	C7880	C	0.619393	0.051242	0.589000
	N7881	N	0.643704	0.022751	0.620065
	O7882	O	0.585432	0.065350	0.561123
	O7883	O	0.708629	-0.011372	0.677654
	C7884	C	0.898982	0.295729	0.659727
	C7885	C	0.904620	0.272238	0.673754
	C7886	C	0.892830	0.272729	0.656940
	C7887	C	0.876554	0.295175	0.628089
	C7888	C	0.871350	0.318498	0.614400
	C7889	C	0.883028	0.318035	0.631121
	H7890	H	0.916767	0.254974	0.695794
	H7891	H	0.858686	0.336001	0.592032
	C7892	C	0.865949	0.289281	0.615687
	C7893	C	0.893603	0.251537	0.664282
	N7894	N	0.876796	0.262920	0.638396
	O7895	O	0.905831	0.229196	0.687207
	O7896	O	0.851254	0.303391	0.591569
	C7897	C	0.906465	0.302689	0.669857
	C7898	C	0.879576	0.340053	0.621823
	N7899	N	0.893797	0.329601	0.645840
	O7900	O	0.867519	0.362274	0.598938
	O7901	O	0.920183	0.288769	0.693333
	C7902	C	0.760596	0.222471	0.577761
	C7903	C	0.731237	0.223340	0.555080
	C7904	C	0.731999	0.201192	0.570216
	C7905	C	0.759456	0.180107	0.605117
	C7906	C	0.787792	0.179834	0.627146
	C7907	C	0.787979	0.201438	0.612640
	H7908	H	0.710233	0.239491	0.528175
	H7909	H	0.808769	0.163417	0.654082
	C7910	C	0.754658	0.158337	0.614336
	C7911	C	0.708275	0.193809	0.555670
	N7912	N	0.725229	0.167152	0.584471
	O7913	O	0.681080	0.207018	0.526143
	O7914	O	0.772393	0.137103	0.641613
	C7915	C	0.770847	0.241068	0.571924
	C7916	C	0.816797	0.205814	0.630370
	N7917	N	0.805548	0.229263	0.604974
	O7918	O	0.844571	0.192625	0.660053
	O7919	O	0.754066	0.261777	0.545226
	C7920	C	0.528315	0.134205	0.760208
	C7921	C	0.527937	0.120145	0.760376
	C7922	C	0.514863	0.104965	0.762515
	C7923	C	0.503056	0.103301	0.765236
	C7924	C	0.504160	0.117328	0.765461
	C7925	C	0.516439	0.133054	0.762635
	H7926	H	0.492816	0.091630	0.766711
	H7927	H	0.516408	0.144341	0.761987
	H7928	H	0.537342	0.121165	0.758617
	C7929	C	0.540662	0.187599	0.735821
	C7930	C	0.531540	0.212980	0.716895
	C7931	C	0.561599	0.214111	0.733444
	C7932	C	0.598050	0.191654	0.766206
	C7933	C	0.606932	0.166372	0.784726
	C7934	C	0.577098	0.165048	0.768628
	H7935	H	0.503371	0.230475	0.691530
	H7936	H	0.635134	0.148925	0.810093
	C7937	C	0.623386	0.200010	0.776724
	C7938	C	0.562313	0.237457	0.722005
	N7939	N	0.600458	0.227335	0.749880
	O7940	O	0.536476	0.260205	0.695318
	O7941	O	0.656443	0.186795	0.802452
	C7942	C	0.516097	0.178945	0.727063
	C7943	C	0.577056	0.141102	0.781981
	N7944	N	0.540007	0.150806	0.756354
	O7945	O	0.602545	0.118128	0.808712
	O7946	O	0.482946	0.192456	0.701070
	C7947	C	0.497283	0.084653	0.740351
	C7948	C	0.484741	0.087417	0.721705
	C7949	C	0.487313	0.065596	0.732250
	C7950	C	0.502027	0.042433	0.760007
	C7951	C	0.513930	0.039884	0.778196
	C7952	C	0.511098	0.061785	0.767481
	H7953	H	0.474076	0.105257	0.700745
	H7954	H	0.524400	0.022095	0.799011
	C7955	C	0.503052	0.022382	0.766024
	C7956	C	0.476711	0.061656	0.718350
	N7957	N	0.487494	0.035174	0.740180
	O7958	O	0.462091	0.077269	0.693788
	O7959	O	0.515073	-0.000356	0.788433
	C7960	C	0.498164	0.104178	0.735600
	C7961	C	0.521082	0.066023	0.780885
	N7962	N	0.511989	0.091983	0.760198
	O7963	O	0.533934	0.051058	0.804186
	O7964	O	0.488869	0.126111	0.715059
	C7965	C	0.982359	0.119610	0.776447
	C7966	C	0.986083	0.120669	0.787956
	C7967	C	0.955331	0.126847	0.770837
	C7968	C	0.923405	0.131203	0.744522
	C7969	C	0.919570	0.130284	0.732864
	C7970	C	0.950011	0.124570	0.749508
	H7971	H	1.010930	0.117170	0.808508
	H7972	H	0.894560	0.133952	0.712163
	C7973	C	0.896299	0.137021	0.732286
	C7974	C	0.949306	0.130364	0.775682
	N7975	N	0.913016	0.136966	0.751244
	O7976	O	0.970448	0.128382	0.795843
	O7977	O	0.866336	0.140711	0.710980
	C7978	C	1.009268	0.114129	0.788363
	C7979	C	0.954722	0.123066	0.742654
	N7980	N	0.990865	0.116679	0.766894
	O7981	O	0.932940	0.126303	0.721302
	O7982	O	1.040438	0.108567	0.811442
	C7983	C	0.618851	0.266470	0.754192
	C7984	C	0.605302	0.252574	0.750729
	C7985	C	0.614916	0.241360	0.753890
	C7986	C	0.638213	0.243450	0.761041
	C7987	C	0.651814	0.257110	0.764981
	C7988	C	0.642110	0.268894	0.761314
	H7989	H	0.645492	0.234756	0.763449
	H7990	H	0.652558	0.279585	0.764146
	H7991	H	0.587166	0.251095	0.745009
	C7992	C	0.478224	-0.008865	0.744234
	C7993	C	0.476821	0.004799	0.743613
	C7994	C	0.487190	0.021815	0.739364
	C7995	C	0.498215	0.025540	0.735209
	C7996	C	0.498769	0.011938	0.735370
	C7997	C	0.489331	-0.005622	0.740368
	H7998	H	0.506321	0.038624	0.732026
	H7999	H	0.490390	-0.016443	0.741060
	H8000	H	0.467806	0.002224	0.746308
	C8001	C	0.884909	0.158984	0.746555
	C8002	C	0.900404	0.155628	0.748984
	C8003	C	0.896242	0.141391	0.747645
	C8004	C	0.876874	0.130701	0.743894
	C8005	C	0.860678	0.135213	0.740323
	C8006	C	0.864437	0.149317	0.741562
	H8007	H	0.874185	0.119239	0.743588
	H8008	H	0.852502	0.152112	0.739617
	H8009	H	0.915584	0.163696	0.752207
	C8010	C	0.622559	0.291161	0.765674
	C8011	C	0.640672	0.291696	0.784540
	C8012	C	0.624384	0.317261	0.763528
	C8013	C	0.591526	0.340557	0.726067
	C8014	C	0.572950	0.339982	0.707063
	C8015	C	0.589993	0.314518	0.728292
	H8016	H	0.666271	0.273645	0.813623
	H8017	H	0.547830	0.358101	0.678107
	C8018	C	0.583371	0.364444	0.712595
	C8019	C	0.638699	0.325486	0.775410
	N8020	N	0.613709	0.354013	0.743787
	O8021	O	0.666185	0.311336	0.805495
	O8022	O	0.557207	0.387957	0.681928
	C8023	C	0.634426	0.267818	0.780073
	C8024	C	0.580286	0.307037	0.717583
	N8025	N	0.609071	0.279049	0.750161
	O8026	O	0.554278	0.321461	0.687869
	O8027	O	0.660346	0.244261	0.810628
	C8028	C	0.688804	0.288534	0.758245
	C8029	C	0.685769	0.310133	0.739985
	C8030	C	0.714070	0.312209	0.758967
	C8031	C	0.743691	0.293754	0.793969
	C8032	C	0.747371	0.271716	0.812645
	C8033	C	0.718807	0.269861	0.793460
	H8034	H	0.662731	0.324620	0.712749
	H8035	H	0.770065	0.257503	0.839633
	C8036	C	0.767300	0.303047	0.805078
	C8037	C	0.717896	0.333847	0.746619
	N8038	N	0.749774	0.327327	0.775245
	O8039	O	0.698303	0.353465	0.718309
	O8040	O	0.795283	0.292724	0.833164
	C8041	C	0.661529	0.281893	0.744801
	C8042	C	0.712317	0.250300	0.804058
	N8043	N	0.676187	0.259948	0.772751
	O8044	O	0.732766	0.230571	0.832860
	O8045	O	0.632651	0.292672	0.716267
	C8046	C	0.519771	0.010819	0.723447
	C8047	C	0.516919	0.008306	0.713376
	C8048	C	0.548336	0.001123	0.731574
	C8049	C	0.580305	-0.003248	0.757945
	C8050	C	0.583017	-0.000520	0.767802
	C8051	C	0.551587	0.006684	0.749591
	H8052	H	0.492352	0.011373	0.693251
	H8053	H	0.607868	-0.004052	0.788379
	C8054	C	0.608479	-0.010884	0.771965
	C8055	C	0.554814	-0.003260	0.727564
	N8056	N	0.590862	-0.009515	0.751664
	O8057	O	0.534259	-0.002058	0.708212
	O8058	O	0.640055	-0.017144	0.795745
	C8059	C	0.492467	0.016856	0.710902
	C8060	C	0.545440	0.010297	0.754288
	N8061	N	0.510252	0.015167	0.731491
	O8062	O	0.565347	0.009790	0.772871
	O8063	O	0.461551	0.022021	0.688169
	C8064	C	0.931585	0.458255	0.735486
	C8065	C	0.902001	0.456403	0.719068
	C8066	C	0.912267	0.430759	0.738604
	C8067	C	0.949472	0.408489	0.772185
	C8068	C	0.979056	0.410398	0.788542
	C8069	C	0.968854	0.436058	0.769048
	H8070	H	0.873133	0.473644	0.693040
	H8071	H	1.007932	0.393123	0.814624
	C8072	C	0.950135	0.384296	0.785433
	C8073	C	0.887956	0.421669	0.729316
	N8074	N	0.912482	0.393651	0.758655
	O8075	O	0.854460	0.434873	0.702837
	O8076	O	0.976542	0.361463	0.812798
	C8077	C	0.930444	0.482533	0.722042
	C8078	C	0.992889	0.445490	0.778107
	N8079	N	0.967959	0.473463	0.748710
	O8080	O	1.026402	0.432655	0.804455
	O8081	O	0.903776	0.505265	0.694610
	C8082	C	0.826510	0.108141	0.750063
	C8083	C	0.829209	0.094503	0.767740
	C8084	C	0.795712	0.107095	0.745095
	C8085	C	0.761594	0.131209	0.707324
	C8086	C	0.758683	0.144537	0.689581
	C8087	C	0.792445	0.132362	0.712314
	H8088	H	0.855749	0.075958	0.797060
	H8089	H	0.732428	0.163501	0.660329
	C8090	C	0.732258	0.139886	0.691824
	C8091	C	0.789454	0.099606	0.755087
	N8092	N	0.751345	0.120659	0.722024
	O8093	O	0.811718	0.080129	0.784802
	O8094	O	0.699261	0.159296	0.660436
	C8095	C	0.857431	0.102286	0.765907
	C8096	C	0.800488	0.142983	0.702779
	N8097	N	0.840325	0.125070	0.736271
	O8098	O	0.778547	0.163105	0.673137
	O8099	O	0.890471	0.082900	0.797220
	C8100	C	0.886298	0.200692	0.742312
	C8101	C	0.876257	0.223404	0.728154
	C8102	C	0.887186	0.218951	0.747017
	C8103	C	0.908298	0.193284	0.778839
	C8104	C	0.918017	0.170698	0.792808
	C8105	C	0.905808	0.175424	0.773159
	H8106	H	0.860182	0.243253	0.703658
	H8107	H	0.932664	0.151086	0.816369
	C8108	C	0.914233	0.195504	0.791553
	C8109	C	0.877234	0.238756	0.737363
	N8110	N	0.891997	0.223340	0.763828
	O8111	O	0.859537	0.262854	0.712154
	O8112	O	0.932524	0.177823	0.818807
	C8113	C	0.877548	0.197865	0.728419
	C8114	C	0.908571	0.156107	0.779082
	N8115	N	0.891538	0.170631	0.751721
	O8116	O	0.920979	0.133006	0.801372
	O8117	O	0.861635	0.214747	0.702768
	C8118	C	0.655462	0.390295	0.749680
	C8119	C	0.645136	0.401622	0.745919
	C8120	C	0.623624	0.397190	0.740997
	C8121	C	0.612911	0.381452	0.740308
	C8122	C	0.624241	0.370044	0.744741
	C8123	C	0.645321	0.374367	0.749279
	H8124	H	0.596466	0.378152	0.736612
	H8125	H	0.653442	0.365681	0.752209
	H8126	H	0.653127	0.413926	0.746219
	C8127	C	0.763270	0.374895	0.767358
	C8128	C	0.774579	0.382430	0.762210
	C8129	C	0.777808	0.371024	0.761821
	C8130	C	0.770394	0.352402	0.766787
	C8131	C	0.758952	0.345508	0.771576
	C8132	C	0.755083	0.356656	0.771751
	H8133	H	0.773060	0.343629	0.766568
	H8134	H	0.745901	0.351227	0.775234
	H8135	H	0.780421	0.396753	0.758452
	C8136	C	0.614776	-0.020837	0.747017
	C8137	C	0.602064	-0.022163	0.748881
	C8138	C	0.604144	-0.008853	0.750227
	C8139	C	0.618026	0.005931	0.749126
	C8140	C	0.630671	0.006837	0.747412
	C8141	C	0.629417	-0.006549	0.746540
	H8142	H	0.618762	0.016724	0.749294
	H8143	H	0.639557	-0.005801	0.745463
	H8144	H	0.590514	-0.033058	0.748890
	C8145	C	0.891657	0.345359	0.768300
	C8146	C	0.904055	0.361070	0.765635
	C8147	C	0.901047	0.376720	0.762412
	C8148	C	0.886454	0.376625	0.762283
	C8149	C	0.874417	0.360706	0.765119
	C8150	C	0.876559	0.345124	0.767870
	H8151	H	0.884511	0.388651	0.760040
	H8152	H	0.867003	0.333008	0.769917
	H8153	H	0.915552	0.361277	0.765844
	C8154	C	0.724031	0.148403	0.713881
	C8155	C	0.712162	0.134153	0.718691
	C8156	C	0.713115	0.115414	0.724285
	C8157	C	0.725336	0.110955	0.724862
	C8158	C	0.737270	0.125343	0.720255
	C8159	C	0.736870	0.144043	0.714856
	H8160	H	0.726553	0.096177	0.729748
	H8161	H	0.746202	0.155017	0.711334
	H8162	H	0.702995	0.137383	0.718537
	C8163	C	0.831578	0.234922	0.740498
	C8164	C	0.841685	0.245852	0.747241
	C8165	C	0.867484	0.250768	0.757761
	C8166	C	0.884139	0.244138	0.762760
	C8167	C	0.874020	0.232708	0.756527
	C8168	C	0.847486	0.228307	0.744980
	H8169	H	0.904312	0.247695	0.771250
	H8170	H	0.839840	0.219538	0.740130
	H8171	H	0.831196	0.249320	0.745998
	C8172	C	0.722315	0.383977	0.776990
	C8173	C	0.755131	0.370161	0.799605
	C8174	C	0.750915	0.380974	0.781775
	C8175	C	0.716832	0.404647	0.744048
	C8176	C	0.684259	0.418678	0.721539
	C8177	C	0.687939	0.407308	0.739198
	H8178	H	0.781682	0.351859	0.828909
	H8179	H	0.657581	0.436534	0.692318
	C8180	C	0.721788	0.409299	0.734232
	C8181	C	0.778184	0.369089	0.797210
	N8182	N	0.757982	0.385986	0.767119
	O8183	O	0.810303	0.348508	0.828677
	O8184	O	0.700027	0.428170	0.704874
	C8185	C	0.715544	0.376497	0.786603
	C8186	C	0.657847	0.415322	0.723282
	N8187	N	0.675976	0.395279	0.753127
	O8188	O	0.624587	0.434338	0.691724
	O8189	O	0.738022	0.358175	0.816193
	C8190	C	0.599614	0.460550	0.724744
	C8191	C	0.590428	0.463878	0.707547
	C8192	C	0.598701	0.441158	0.721105
	C8193	C	0.614923	0.416718	0.749836
	C8194	C	0.623808	0.413562	0.766815
	C8195	C	0.615964	0.436241	0.753564
	H8196	H	0.578641	0.482639	0.685855
	H8197	H	0.636593	0.394627	0.789213
	C8198	C	0.621737	0.396468	0.758360
	C8199	C	0.594722	0.437508	0.710413
	N8200	N	0.611737	0.409943	0.735534
	O8201	O	0.580729	0.454069	0.685974
	O8202	O	0.632782	0.373621	0.779404
	C8203	C	0.595495	0.480589	0.717479
	C8204	C	0.623345	0.439939	0.766119
	N8205	N	0.611184	0.466843	0.743755
	O8206	O	0.636525	0.423912	0.789910
	O8207	O	0.581766	0.503915	0.694157
	C8208	C	0.818218	0.372711	0.745351
	C8209	C	0.786521	0.382705	0.725789
	C8210	C	0.793491	0.379633	0.741637
	C8211	C	0.829721	0.367163	0.774939
	C8212	C	0.861409	0.357211	0.794488
	C8213	C	0.854353	0.360484	0.778492
	H8214	H	0.758521	0.392008	0.700230
	H8215	H	0.889546	0.347513	0.820342
	C8216	C	0.827353	0.366082	0.784732
	C8217	C	0.766591	0.387241	0.728789
	N8218	N	0.789042	0.377615	0.756559
	O8219	O	0.732722	0.398978	0.700870
	O8220	O	0.852288	0.357515	0.810842
	C8221	C	0.821240	0.372715	0.736531
	C8222	C	0.881600	0.352540	0.791830
	N8223	N	0.859852	0.360701	0.765276
	O8224	O	0.915158	0.341818	0.819080
	O8225	O	0.796706	0.380921	0.710783
	C8226	C	0.681842	0.036206	0.758614
	C8227	C	0.711923	0.037176	0.774975
	C8228	C	0.701984	0.062987	0.753535
	C8229	C	0.664656	0.086268	0.718323
	C8230	C	0.634600	0.085285	0.702013
	C8231	C	0.644448	0.059493	0.723272
	H8232	H	0.740929	0.019158	0.802313
	H8233	H	0.605624	0.103296	0.674697
	C8234	C	0.664250	0.110302	0.703146
	C8235	C	0.726642	0.071274	0.761895
	N8236	N	0.702042	0.099814	0.730192
	O8237	O	0.760390	0.057107	0.789361
	O8238	O	0.637894	0.133879	0.674209
	C8239	C	0.682066	0.012168	0.773324
	C8240	C	0.619428	0.051214	0.714040
	N8241	N	0.643733	0.022723	0.745100
	O8242	O	0.585467	0.065325	0.686163
	O8243	O	0.708654	-0.011404	0.802684
	C8244	C	0.898998	0.295717	0.784745
	C8245	C	0.904641	0.272223	0.798777
	C8246	C	0.892849	0.272712	0.781965
	C8247	C	0.876568	0.295157	0.753110
	C8248	C	0.871358	0.318483	0.739415
	C8249	C	0.883039	0.318022	0.756135
	H8250	H	0.916793	0.254960	0.820821
	H8251	H	0.858689	0.335985	0.717043
	C8252	C	0.865963	0.289259	0.740710
	C8253	C	0.893626	0.251516	0.789312
	N8254	N	0.876817	0.262897	0.763425
	O8255	O	0.905859	0.229174	0.812240
	O8256	O	0.851262	0.303369	0.716589
	C8257	C	0.906484	0.302680	0.794874
	C8258	C	0.879584	0.340043	0.746833
	N8259	N	0.893811	0.329593	0.770853
	O8260	O	0.867522	0.362264	0.723944
	O8261	O	0.920205	0.288761	0.818351
	C8262	C	0.760620	0.222446	0.702791
	C8263	C	0.731269	0.223310	0.680114
	C8264	C	0.732030	0.201162	0.695250
	C8265	C	0.759478	0.180083	0.730145
	C8266	C	0.787803	0.179816	0.752168
	C8267	C	0.787994	0.201419	0.737664
	H8268	H	0.710273	0.239457	0.653214
	H8269	H	0.808772	0.163404	0.779099
	C8270	C	0.754683	0.158312	0.739367
	C8271	C	0.708317	0.193773	0.680712
	N8272	N	0.725267	0.167119	0.709512
	O8273	O	0.681133	0.206975	0.651192
	O8274	O	0.772412	0.137082	0.766641
	C8275	C	0.770873	0.241042	0.696956
	C8276	C	0.816808	0.205797	0.755393
	N8277	N	0.805568	0.229240	0.730002
	O8278	O	0.844573	0.192613	0.785070
	O8279	O	0.754098	0.261748	0.670262
	C8280	C	0.528367	0.134160	0.885272
	C8281	C	0.527987	0.120102	0.885438
	C8282	C	0.514907	0.104926	0.887569
	C8283	C	0.503098	0.103262	0.890289
	C8284	C	0.504202	0.117286	0.890516
	C8285	C	0.516486	0.133010	0.887694
	H8286	H	0.492854	0.091593	0.891759
	H8287	H	0.516455	0.144296	0.887048
	H8288	H	0.537394	0.121122	0.883680
	C8289	C	0.540736	0.187544	0.860912
	C8290	C	0.531625	0.212920	0.841999
	C8291	C	0.561689	0.214046	0.858554
	C8292	C	0.598135	0.191588	0.891310
	C8293	C	0.607006	0.166310	0.909817
	C8294	C	0.577167	0.164992	0.893713
	H8295	H	0.503461	0.230415	0.816640
	H8296	H	0.635203	0.148863	0.935179
	C8297	C	0.623479	0.199937	0.901837
	C8298	C	0.562415	0.237384	0.847130
	N8299	N	0.600562	0.227258	0.875008
	O8300	O	0.536586	0.260131	0.820453
	O8301	O	0.656533	0.186721	0.927563
	C8302	C	0.516164	0.178894	0.852145
	C8303	C	0.577115	0.141050	0.907054
	N8304	N	0.540065	0.150757	0.881425
	O8305	O	0.602597	0.118078	0.933778
	O8306	O	0.483015	0.192408	0.826153
	C8307	C	0.497320	0.084626	0.865392
	C8308	C	0.484778	0.087394	0.846744
	C8309	C	0.487340	0.065578	0.857279
	C8310	C	0.502046	0.042414	0.885031
	C8311	C	0.513951	0.039861	0.903223
	C8312	C	0.511128	0.061758	0.892517
	H8313	H	0.474120	0.105234	0.825789
	H8314	H	0.524414	0.022073	0.924033
	C8315	C	0.503061	0.022369	0.891038
	C8316	C	0.476738	0.061642	0.843376
	N8317	N	0.487502	0.035165	0.865191
	O8318	O	0.462104	0.077261	0.818804
	O8319	O	0.515075	-0.000368	0.913441
	C8320	C	0.498206	0.104147	0.860648
	C8321	C	0.521115	0.065991	0.905926
	N8322	N	0.512029	0.091948	0.885246
	O8323	O	0.533964	0.051025	0.929226
	O8324	O	0.488915	0.126079	0.840111
	C8325	C	0.982372	0.119593	0.901469
	C8326	C	0.986077	0.120671	0.912955
	C8327	C	0.955322	0.126851	0.895832
	C8328	C	0.923410	0.131188	0.869535
	C8329	C	0.919593	0.130250	0.857899
	C8330	C	0.950037	0.124536	0.874546
	H8331	H	1.010914	0.117187	0.933493
	H8332	H	0.894594	0.133904	0.837211
	C8333	C	0.896297	0.137009	0.857290
	C8334	C	0.949276	0.130388	0.900651
	N8335	N	0.912994	0.136974	0.876225
	O8336	O	0.970411	0.128411	0.920806
	O8337	O	0.866342	0.140687	0.835996
	C8338	C	1.009290	0.114107	0.913394
	C8339	C	0.954763	0.123018	0.867709
	N8340	N	0.990902	0.116640	0.891944
	O8341	O	0.932993	0.126241	0.846372
	O8342	O	1.040454	0.108553	0.936467
	C8343	C	0.618979	0.266376	0.879347
	C8344	C	0.605424	0.252483	0.875878
	C8345	C	0.615031	0.241274	0.879030
	C8346	C	0.638327	0.243366	0.886180
	C8347	C	0.651934	0.257021	0.890127
	C8348	C	0.642237	0.268800	0.886468
	H8349	H	0.645597	0.234677	0.888579
	H8350	H	0.652688	0.279489	0.889304
	H8351	H	0.587288	0.251005	0.870159
	C8352	C	0.478215	-0.008864	0.869227
	C8353	C	0.476817	0.004797	0.868613
	C8354	C	0.487190	0.021811	0.864368
	C8355	C	0.498211	0.025538	0.860209
	C8356	C	0.498759	0.011940	0.860363
	C8357	C	0.489317	-0.005618	0.865357
	H8358	H	0.506319	0.038621	0.857027
	H8359	H	0.490373	-0.016436	0.866046
	H8360	H	0.467805	0.002220	0.871310
	C8361	C	0.884857	0.159021	0.871498
	C8362	C	0.900364	0.155655	0.873942
	C8363	C	0.896205	0.141412	0.872608
	C8364	C	0.876827	0.130730	0.868847
	C8365	C	0.860618	0.135255	0.865260
	C8366	C	0.864376	0.149362	0.866495
	H8367	H	0.874140	0.119265	0.868545
	H8368	H	0.852432	0.152166	0.864538
	H8369	H	0.915552	0.163717	0.877172
	C8370	C	0.622673	0.291085	0.890808
	C8371	C	0.640781	0.291632	0.909663
	C8372	C	0.624478	0.317201	0.888637
	C8373	C	0.591611	0.340489	0.851174
	C8374	C	0.573040	0.339902	0.832182
	C8375	C	0.590098	0.314434	0.853425
	H8376	H	0.666386	0.273586	0.938746
	H8377	H	0.547913	0.358015	0.803224
	C8378	C	0.583439	0.364385	0.837684
	C8379	C	0.638782	0.325440	0.900503
	N8380	N	0.613777	0.353966	0.868868
	O8381	O	0.666272	0.311299	0.930584
	O8382	O	0.557263	0.387894	0.807011
	C8383	C	0.634554	0.267735	0.905221
	C8384	C	0.580398	0.306942	0.842727
	N8385	N	0.609197	0.278956	0.875314
	O8386	O	0.554385	0.321358	0.813016
	O8387	O	0.660484	0.244181	0.935782
	C8388	C	0.688884	0.288465	0.883349
	C8389	C	0.685829	0.310071	0.865073
	C8390	C	0.714119	0.312159	0.884040
	C8391	C	0.743749	0.293710	0.919043
	C8392	C	0.747449	0.271666	0.937734
	C8393	C	0.718894	0.269799	0.918565
	H8394	H	0.662784	0.324553	0.837836
	H8395	H	0.770149	0.257457	0.964724
	C8396	C	0.767345	0.303016	0.930134
	C8397	C	0.717923	0.333808	0.871670
	N8398	N	0.749802	0.327297	0.900289
	O8399	O	0.698314	0.353426	0.843351
	O8400	O	0.795331	0.292700	0.958216
	C8401	C	0.661624	0.281811	0.869925
	C8402	C	0.712423	0.250230	0.929182
	N8403	N	0.676296	0.259865	0.897885
	O8404	O	0.732883	0.230502	0.957989
	O8405	O	0.632747	0.292579	0.841398
	C8406	C	0.519754	0.010833	0.848428
	C8407	C	0.516897	0.008327	0.838351
	C8408	C	0.548313	0.001147	0.856545
	C8409	C	0.580283	-0.003228	0.882920
	C8410	C	0.583000	-0.000506	0.892784
	C8411	C	0.551571	0.006695	0.874576
	H8412	H	0.492329	0.011397	0.818222
	H8413	H	0.607852	-0.004040	0.913363
	C8414	C	0.608456	-0.010861	0.896937
	C8415	C	0.554785	-0.003227	0.852527
	N8416	N	0.590839	-0.009490	0.876634
	O8417	O	0.534236	-0.002033	0.833183
	O8418	O	0.640032	-0.017120	0.920718
	C8419	C	0.492453	0.016865	0.835888
	C8420	C	0.545429	0.010301	0.879279
	N8421	N	0.510240	0.015172	0.856482
	O8422	O	0.565339	0.009789	0.897867
	O8423	O	0.461536	0.022032	0.813154
	C8424	C	0.931574	0.458258	0.860478
	C8425	C	0.901990	0.456406	0.844062
	C8426	C	0.912255	0.430762	0.863598
	C8427	C	0.949460	0.408492	0.897177
	C8428	C	0.979043	0.410401	0.913533
	C8429	C	0.968841	0.436062	0.894039
	H8430	H	0.873123	0.473647	0.818036
	H8431	H	1.007919	0.393126	0.939614
	C8432	C	0.950123	0.384299	0.910425
	C8433	C	0.887944	0.421673	0.854310
	N8434	N	0.912472	0.393654	0.883652
	O8435	O	0.854453	0.434873	0.827842
	O8436	O	0.976529	0.361467	0.937789
	C8437	C	0.930434	0.482536	0.847034
	C8438	C	0.992877	0.445493	0.903097
	N8439	N	0.967948	0.473466	0.873701
	O8440	O	1.026389	0.432658	0.929444
	O8441	O	0.903766	0.505268	0.819604
	C8442	C	0.826435	0.108193	0.874984
	C8443	C	0.829131	0.094552	0.892660
	C8444	C	0.795636	0.107148	0.870015
	C8445	C	0.761522	0.131269	0.832246
	C8446	C	0.758614	0.144599	0.814504
	C8447	C	0.792374	0.132420	0.837236
	H8448	H	0.855668	0.076002	0.921980
	H8449	H	0.732363	0.163568	0.785252
	C8450	C	0.732189	0.139948	0.816748
	C8451	C	0.789379	0.099658	0.880008
	N8452	N	0.751273	0.120714	0.846947
	O8453	O	0.811633	0.080167	0.909721
	O8454	O	0.699197	0.159365	0.785360
	C8455	C	0.857357	0.102333	0.890831
	C8456	C	0.800420	0.143039	0.827704
	N8457	N	0.840256	0.125119	0.861199
	O8458	O	0.778483	0.163164	0.798064
	O8459	O	0.890394	0.082943	0.922143
	C8460	C	0.886241	0.200734	0.867247
	C8461	C	0.876197	0.223447	0.853087
	C8462	C	0.887132	0.218994	0.871953
	C8463	C	0.908253	0.193326	0.903780
	C8464	C	0.917974	0.170740	0.917752
	C8465	C	0.905758	0.175465	0.898099
	H8466	H	0.860116	0.243296	0.828588
	H8467	H	0.932628	0.151127	0.941318
	C8468	C	0.914194	0.195546	0.916499
	C8469	C	0.877180	0.238799	0.862299
	N8470	N	0.891953	0.223382	0.888771
	O8471	O	0.859476	0.262898	0.837086
	O8472	O	0.932495	0.177865	0.943758
	C8473	C	0.877488	0.197906	0.853354
	C8474	C	0.908523	0.156146	0.904025
	N8475	N	0.891485	0.170670	0.876661
	O8476	O	0.920936	0.133045	0.926319
	O8477	O	0.861568	0.214789	0.827698
	C8478	C	0.655487	0.390279	0.874710
	C8479	C	0.645148	0.401615	0.870935
	C8480	C	0.623642	0.397180	0.866019
	C8481	C	0.612947	0.381429	0.865351
	C8482	C	0.624290	0.370011	0.869799
	C8483	C	0.645364	0.374338	0.874330
	H8484	H	0.596508	0.378125	0.861661
	H8485	H	0.653493	0.365646	0.877270
	H8486	H	0.653124	0.413929	0.871218
	C8487	C	0.763279	0.374880	0.892375
	C8488	C	0.774580	0.382417	0.887220
	C8489	C	0.777808	0.371007	0.886835
	C8490	C	0.770401	0.352381	0.891809
	C8491	C	0.758969	0.345484	0.896606
	C8492	C	0.755101	0.356636	0.896780
	H8493	H	0.773067	0.343605	0.891592
	H8494	H	0.745925	0.351205	0.900270
	H8495	H	0.780417	0.396742	0.883456
	C8496	C	0.614761	-0.020818	0.871997
	C8497	C	0.602047	-0.022142	0.873859
	C8498	C	0.604122	-0.008829	0.875200
	C8499	C	0.618001	0.005957	0.874096
	C8500	C	0.630648	0.006862	0.872383
	C8501	C	0.629400	-0.006529	0.871517
	H8502	H	0.618733	0.016752	0.874260
	H8503	H	0.639541	-0.005781	0.870442
	H8504	H	0.590497	-0.033038	0.873869
	C8505	C	0.891645	0.345364	0.893292
	C8506	C	0.904043	0.361075	0.890627
	C8507	C	0.901037	0.376722	0.887407
	C8508	C	0.886444	0.376625	0.887281
	C8509	C	0.874407	0.360707	0.890115
	C8510	C	0.876548	0.345127	0.892864
	H8511	H	0.884504	0.388649	0.885041
	H8512	H	0.866991	0.333011	0.894909
	H8513	H	0.915539	0.361284	0.890835
	C8514	C	0.723983	0.148443	0.838830
	C8515	C	0.712112	0.134194	0.843638
	C8516	C	0.713058	0.115458	0.849224
	C8517	C	0.725271	0.111004	0.849793
	C8518	C	0.737205	0.125393	0.845186
	C8519	C	0.736815	0.144088	0.839797
	H8520	H	0.726483	0.096230	0.854673
	H8521	H	0.746148	0.155060	0.836277
	H8522	H	0.702952	0.137418	0.843491
	C8523	C	0.831553	0.234949	0.865463
	C8524	C	0.841663	0.245877	0.872210
	C8525	C	0.867458	0.250795	0.882725
	C8526	C	0.884106	0.244172	0.887715
	C8527	C	0.873982	0.232746	0.881477
	C8528	C	0.847452	0.228341	0.869935
	H8529	H	0.904276	0.247731	0.896201
	H8530	H	0.839804	0.219574	0.865083
	H8531	H	0.831179	0.249341	0.870973
	C8532	C	0.722330	0.383968	0.902009
	C8533	C	0.755147	0.370155	0.924622
	C8534	C	0.750927	0.380967	0.906790
	C8535	C	0.716840	0.404635	0.869064
	C8536	C	0.684267	0.418663	0.846555
	C8537	C	0.687950	0.407294	0.864217
	H8538	H	0.781701	0.351857	0.953927
	H8539	H	0.657586	0.436515	0.817335
	C8540	C	0.721795	0.409287	0.859247
	C8541	C	0.778197	0.369084	0.922226
	N8542	N	0.757990	0.385975	0.892133
	O8543	O	0.810313	0.348498	0.953692
	O8544	O	0.700032	0.428157	0.829888
	C8545	C	0.715563	0.376489	0.911624
	C8546	C	0.657859	0.415305	0.848303
	N8547	N	0.675993	0.395265	0.878150
	O8548	O	0.624598	0.434317	0.816745
	O8549	O	0.738044	0.358171	0.941215
	C8550	C	0.599608	0.460560	0.849735
	C8551	C	0.590427	0.463883	0.832544
	C8552	C	0.598700	0.441161	0.846105
	C8553	C	0.614914	0.416725	0.874830
	C8554	C	0.623794	0.413573	0.891804
	C8555	C	0.615953	0.436253	0.878552
	H8556	H	0.578645	0.482641	0.810855
	H8557	H	0.636574	0.394641	0.914199
	C8558	C	0.621728	0.396472	0.883357
	C8559	C	0.594724	0.437506	0.835418
	N8560	N	0.611744	0.409941	0.860543
	O8561	O	0.580755	0.454061	0.810995
	O8562	O	0.632762	0.373628	0.904394
	C8563	C	0.595488	0.480601	0.842468
	C8564	C	0.623331	0.439955	0.891103
	N8565	N	0.611174	0.466858	0.868740
	O8566	O	0.636509	0.423931	0.914892
	O8567	O	0.581762	0.503926	0.819147
	C8568	C	0.818211	0.372700	0.870355
	C8569	C	0.786515	0.382690	0.850797
	C8570	C	0.793486	0.379616	0.866645
	C8571	C	0.829715	0.367151	0.899944
	C8572	C	0.861401	0.357204	0.919490
	C8573	C	0.854345	0.360477	0.903494
	H8574	H	0.758515	0.391991	0.825239
	H8575	H	0.889537	0.347509	0.945342
	C8576	C	0.827348	0.366069	0.909738
	C8577	C	0.766587	0.387220	0.853801
	N8578	N	0.789039	0.377597	0.881569
	O8579	O	0.732720	0.398952	0.825886
	O8580	O	0.852282	0.357504	0.935847
	C8581	C	0.821232	0.372707	0.861533
	C8582	C	0.881591	0.352537	0.916828
	N8583	N	0.859843	0.360698	0.890274
	O8584	O	0.915149	0.341818	0.944077
	O8585	O	0.796698	0.380913	0.835786
	C8586	C	0.681806	0.036240	0.883573
	C8587	C	0.711884	0.037214	0.899931
	C8588	C	0.701939	0.063027	0.878485
	C8589	C	0.664607	0.086306	0.843269
	C8590	C	0.634555	0.085319	0.826962
	C8591	C	0.644408	0.059525	0.848227
	H8592	H	0.740892	0.019198	0.927272
	H8593	H	0.605576	0.103328	0.799644
	C8594	C	0.664195	0.110342	0.828086
	C8595	C	0.726593	0.071318	0.886841
	N8596	N	0.701988	0.099857	0.855133
	O8597	O	0.760342	0.057153	0.914308
	O8598	O	0.637834	0.133919	0.799144
	C8599	C	0.682037	0.012199	0.898289
	C8600	C	0.619393	0.051242	0.839000
	N8601	N	0.643704	0.022751	0.870065
	O8602	O	0.585432	0.065350	0.811123
	O8603	O	0.708629	-0.011372	0.927654
	C8604	C	0.898982	0.295729	0.909727
	C8605	C	0.904620	0.272238	0.923754
	C8606	C	0.892830	0.272729	0.906940
	C8607	C	0.876554	0.295175	0.878089
	C8608	C	0.871350	0.318498	0.864400
	C8609	C	0.883028	0.318035	0.881121
	H8610	H	0.916767	0.254974	0.945794
	H8611	H	0.858686	0.336001	0.842032
	C8612	C	0.865949	0.289281	0.865687
	C8613	C	0.893603	0.251537	0.914282
	N8614	N	0.876796	0.262920	0.888396
	O8615	O	0.905831	0.229196	0.937207
	O8616	O	0.851254	0.303391	0.841569
	C8617	C	0.906465	0.302689	0.919857
	C8618	C	0.879576	0.340053	0.871823
	N8619	N	0.893797	0.329601	0.895840
	O8620	O	0.867519	0.362274	0.848938
	O8621	O	0.920183	0.288769	0.943333
	C8622	C	0.760596	0.222471	0.827761
	C8623	C	0.731237	0.223340	0.805080
	C8624	C	0.731999	0.201192	0.820216
	C8625	C	0.759456	0.180107	0.855117
	C8626	C	0.787792	0.179834	0.877146
	C8627	C	0.787979	0.201438	0.862640
	H8628	H	0.710233	0.239491	0.778175
	H8629	H	0.808769	0.163417	0.904082
	C8630	C	0.754658	0.158337	0.864336
	C8631	C	0.708275	0.193809	0.805670
	N8632	N	0.725229	0.167152	0.834471
	O8633	O	0.681080	0.207018	0.776143
	O8634	O	0.772393	0.137103	0.891613
	C8635	C	0.770847	0.241068	0.821924
	C8636	C	0.816797	0.205814	0.880370
	N8637	N	0.805548	0.229263	0.854974
	O8638	O	0.844571	0.192625	0.910053
	O8639	O	0.754066	0.261777	0.795226
	C8640	C	0.528315	0.634205	0.010208
	C8641	C	0.527937	0.620145	0.010376
	C8642	C	0.514863	0.604965	0.012515
	C8643	C	0.503056	0.603301	0.015236
	C8644	C	0.504160	0.617328	0.015461
	C8645	C	0.516439	0.633054	0.012635
	H8646	H	0.492816	0.591630	0.016711
	H8647	H	0.516408	0.644341	0.011987
	H8648	H	0.537342	0.621165	0.008617
	C8649	C	0.540662	0.687599	-0.014179
	C8650	C	0.531540	0.712980	-0.033105
	C8651	C	0.561599	0.714111	-0.016556
	C8652	C	0.598050	0.691654	0.016206
	C8653	C	0.606932	0.666372	0.034726
	C8654	C	0.577098	0.665048	0.018628
	H8655	H	0.503371	0.730475	-0.058470
	H8656	H	0.635134	0.648925	0.060093
	C8657	C	0.623386	0.700010	0.026724
	C8658	C	0.562313	0.737457	-0.027995
	N8659	N	0.600458	0.727335	-0.000120
	O8660	O	0.536476	0.760205	-0.054682
	O8661	O	0.656443	0.686795	0.052452
	C8662	C	0.516097	0.678945	-0.022937
	C8663	C	0.577056	0.641102	0.031981
	N8664	N	0.540007	0.650806	0.006354
	O8665	O	0.602545	0.618128	0.058712
	O8666	O	0.482946	0.692456	-0.048930
	C8667	C	0.497283	0.584653	-0.009649
	C8668	C	0.484741	0.587417	-0.028295
	C8669	C	0.487313	0.565596	-0.017750
	C8670	C	0.502027	0.542433	0.010007
	C8671	C	0.513930	0.539884	0.028196
	C8672	C	0.511098	0.561785	0.017481
	H8673	H	0.474076	0.605257	-0.049255
	H8674	H	0.524400	0.522095	0.049011
	C8675	C	0.503052	0.522382	0.016024
	C8676	C	0.476711	0.561656	-0.031650
	N8677	N	0.487494	0.535174	-0.009820
	O8678	O	0.462091	0.577269	-0.056212
	O8679	O	0.515073	0.499644	0.038433
	C8680	C	0.498164	0.604178	-0.014400
	C8681	C	0.521082	0.566023	0.030885
	N8682	N	0.511989	0.591983	0.010198
	O8683	O	0.533934	0.551058	0.054186
	O8684	O	0.488869	0.626111	-0.034941
	C8685	C	0.982359	0.619610	0.026447
	C8686	C	0.986083	0.620669	0.037956
	C8687	C	0.955331	0.626847	0.020837
	C8688	C	0.923405	0.631203	-0.005478
	C8689	C	0.919570	0.630284	-0.017136
	C8690	C	0.950011	0.624570	-0.000492
	H8691	H	1.010930	0.617170	0.058508
	H8692	H	0.894560	0.633952	-0.037837
	C8693	C	0.896299	0.637021	-0.017714
	C8694	C	0.949306	0.630364	0.025682
	N8695	N	0.913016	0.636966	0.001244
	O8696	O	0.970448	0.628382	0.045843
	O8697	O	0.866336	0.640711	-0.039020
	C8698	C	1.009268	0.614129	0.038363
	C8699	C	0.954722	0.623066	-0.007346
	N8700	N	0.990865	0.616679	0.016894
	O8701	O	0.932940	0.626303	-0.028698
	O8702	O	1.040438	0.608567	0.061442
	C8703	C	0.618851	0.766470	0.004192
	C8704	C	0.605302	0.752574	0.000729
	C8705	C	0.614916	0.741360	0.003890
	C8706	C	0.638213	0.743450	0.011041
	C8707	C	0.651814	0.757110	0.014981
	C8708	C	0.642110	0.768894	0.011314
	H8709	H	0.645492	0.734756	0.013449
	H8710	H	0.652558	0.779585	0.014146
	H8711	H	0.587166	0.751095	-0.004991
	C8712	C	0.478224	0.491135	-0.005766
	C8713	C	0.476821	0.504799	-0.006387
	C8714	C	0.487190	0.521815	-0.010636
	C8715	C	0.498215	0.525540	-0.014791
	C8716	C	0.498769	0.511938	-0.014630
	C8717	C	0.489331	0.494378	-0.009632
	H8718	H	0.506321	0.538624	-0.017974
	H8719	H	0.490390	0.483557	-0.008940
	H8720	H	0.467806	0.502224	-0.003692
	C8721	C	0.884909	0.658984	-0.003445
	C8722	C	0.900404	0.655628	-0.001016
	C8723	C	0.896242	0.641391	-0.002355
	C8724	C	0.876874	0.630701	-0.006106
	C8725	C	0.860678	0.635213	-0.009677
	C8726	C	0.864437	0.649317	-0.008438
	H8727	H	0.874185	0.619239	-0.006412
	H8728	H	0.852502	0.652112	-0.010383
	H8729	H	0.915584	0.663696	0.002207
	C8730	C	0.622559	0.791161	0.015674
	C8731	C	0.640672	0.791696	0.034540
	C8732	C	0.624384	0.817261	0.013528
	C8733	C	0.591526	0.840557	-0.023933
	C8734	C	0.572950	0.839982	-0.042937
	C8735	C	0.589993	0.814518	-0.021708
	H8736	H	0.666271	0.773645	0.063623
	H8737	H	0.547830	0.858101	-0.071893
	C8738	C	0.583371	0.864444	-0.037405
	C8739	C	0.638699	0.825486	0.025410
	N8740	N	0.613709	0.854013	-0.006213
	O8741	O	0.666185	0.811336	0.055495
	O8742	O	0.557207	0.887957	-0.068072
	C8743	C	0.634426	0.767818	0.030073
	C8744	C	0.580286	0.807037	-0.032417
	N8745	N	0.609071	0.779049	0.000161
	O8746	O	0.554278	0.821461	-0.062131
	O8747	O	0.660346	0.744261	0.060628
	C8748	C	0.688804	0.788534	0.008245
	C8749	C	0.685769	0.810133	-0.010015
	C8750	C	0.714070	0.812209	0.008967
	C8751	C	0.743691	0.793754	0.043969
	C8752	C	0.747371	0.771716	0.062645
	C8753	C	0.718807	0.769861	0.043460
	H8754	H	0.662731	0.824620	-0.037251
	H8755	H	0.770065	0.757503	0.089633
	C8756	C	0.767300	0.803047	0.055078
	C8757	C	0.717896	0.833847	-0.003381
	N8758	N	0.749774	0.827327	0.025245
	O8759	O	0.698303	0.853465	-0.031691
	O8760	O	0.795283	0.792724	0.083164
	C8761	C	0.661529	0.781893	-0.005199
	C8762	C	0.712317	0.750300	0.054058
	N8763	N	0.676187	0.759948	0.022751
	O8764	O	0.732766	0.730571	0.082860
	O8765	O	0.632651	0.792672	-0.033733
	C8766	C	0.519771	0.510819	-0.026553
	C8767	C	0.516919	0.508306	-0.036624
	C8768	C	0.548336	0.501123	-0.018426
	C8769	C	0.580305	0.496752	0.007945
	C8770	C	0.583017	0.499480	0.017802
	C8771	C	0.551587	0.506684	-0.000409
	H8772	H	0.492352	0.511373	-0.056749
	H8773	H	0.607868	0.495948	0.038379
	C8774	C	0.608479	0.489116	0.021965
	C8775	C	0.554814	0.496740	-0.022436
	N8776	N	0.590862	0.490485	0.001664
	O8777	O	0.534259	0.497942	-0.041788
	O8778	O	0.640055	0.482856	0.045745
	C8779	C	0.492467	0.516856	-0.039098
	C8780	C	0.545440	0.510297	0.004288
	N8781	N	0.510252	0.515167	-0.018509
	O8782	O	0.565347	0.509790	0.022871
	O8783	O	0.461551	0.522021	-0.061831
	C8784	C	0.931585	0.958255	-0.014514
	C8785	C	0.902001	0.956403	-0.030932
	C8786	C	0.912267	0.930759	-0.011396
	C8787	C	0.949472	0.908489	0.022185
	C8788	C	0.979056	0.910398	0.038542
	C8789	C	0.968854	0.936058	0.019048
	H8790	H	0.873133	0.973644	-0.056960
	H8791	H	1.007932	0.893123	0.064624
	C8792	C	0.950135	0.884296	0.035433
	C8793	C	0.887956	0.921669	-0.020684
	N8794	N	0.912482	0.893651	0.008655
	O8795	O	0.854460	0.934873	-0.047163
	O8796	O	0.976542	0.861463	0.062798
	C8797	C	0.930444	0.982533	-0.027958
	C8798	C	0.992889	0.945490	0.028107
	N8799	N	0.967959	0.973463	-0.001290
	O8800	O	1.026402	0.932655	0.054455
	O8801	O	0.903776	1.005265	-0.055390
	C8802	C	0.826510	0.608141	0.000063
	C8803	C	0.829209	0.594503	0.017740
	C8804	C	0.795712	0.607095	-0.004905
	C8805	C	0.761594	0.631209	-0.042676
	C8806	C	0.758683	0.644537	-0.060419
	C8807	C	0.792445	0.632362	-0.037686
	H8808	H	0.855749	0.575958	0.047060
	H8809	H	0.732428	0.663501	-0.089671
	C8810	C	0.732258	0.639886	-0.058176
	C8811	C	0.789454	0.599606	0.005087
	N8812	N	0.751345	0.620659	-0.027976
	O8813	O	0.811718	0.580129	0.034802
	O8814	O	0.699261	0.659296	-0.089564
	C8815	C	0.857431	0.602286	0.015907
	C8816	C	0.800488	0.642983	-0.047221
	N8817	N	0.840325	0.625070	-0.013729
	O8818	O	0.778547	0.663105	-0.076863
	O8819	O	0.890471	0.582900	0.047220
	C8820	C	0.886298	0.700692	-0.007688
	C8821	C	0.876257	0.723404	-0.021846
	C8822	C	0.887186	0.718951	-0.002983
	C8823	C	0.908298	0.693284	0.028839
	C8824	C	0.918017	0.670698	0.042808
	C8825	C	0.905808	0.675424	0.023159
	H8826	H	0.860182	0.743253	-0.046342
	H8827	H	0.932664	0.651086	0.066369
	C8828	C	0.914233	0.695504	0.041553
	C8829	C	0.877234	0.738756	-0.012637
	N8830	N	0.891997	0.723340	0.013828
	O8831	O	0.859537	0.762854	-0.037846
	O8832	O	0.932524	0.677823	0.068807
	C8833	C	0.877548	0.697865	-0.021581
	C8834	C	0.908571	0.656107	0.029082
	N8835	N	0.891538	0.670631	0.001721
	O8836	O	0.920979	0.633006	0.051372
	O8837	O	0.861635	0.714747	-0.047232
	C8838	C	0.655462	0.890295	-0.000320
	C8839	C	0.645136	0.901622	-0.004081
	C8840	C	0.623624	0.897190	-0.009003
	C8841	C	0.612911	0.881452	-0.009692
	C8842	C	0.624241	0.870044	-0.005259
	C8843	C	0.645321	0.874367	-0.000721
	H8844	H	0.596466	0.878152	-0.013388
	H8845	H	0.653442	0.865681	0.002209
	H8846	H	0.653127	0.913926	-0.003781
	C8847	C	0.763270	0.874895	0.017358
	C8848	C	0.774579	0.882430	0.012210
	C8849	C	0.777808	0.871024	0.011821
	C8850	C	0.770394	0.852402	0.016787
	C8851	C	0.758952	0.845508	0.021576
	C8852	C	0.755083	0.856656	0.021751
	H8853	H	0.773060	0.843629	0.016568
	H8854	H	0.745901	0.851227	0.025234
	H8855	H	0.780421	0.896753	0.008452
	C8856	C	0.614776	0.479163	-0.002983
	C8857	C	0.602064	0.477837	-0.001119
	C8858	C	0.604144	0.491147	0.000227
	C8859	C	0.618026	0.505931	-0.000874
	C8860	C	0.630671	0.506837	-0.002588
	C8861	C	0.629417	0.493451	-0.003460
	H8862	H	0.618762	0.516724	-0.000706
	H8863	H	0.639557	0.494199	-0.004537
	H8864	H	0.590514	0.466942	-0.001110
	C8865	C	0.891657	0.845359	0.018300
	C8866	C	0.904055	0.861070	0.015635
	C8867	C	0.901047	0.876720	0.012412
	C8868	C	0.886454	0.876625	0.012283
	C8869	C	0.874417	0.860706	0.015119
	C8870	C	0.876559	0.845124	0.017870
	H8871	H	0.884511	0.888651	0.010040
	H8872	H	0.867003	0.833008	0.019917
	H8873	H	0.915552	0.861277	0.015844
	C8874	C	0.724031	0.648403	-0.036119
	C8875	C	0.712162	0.634153	-0.031309
	C8876	C	0.713115	0.615414	-0.025715
	C8877	C	0.725336	0.610955	-0.025138
	C8878	C	0.737270	0.625343	-0.029745
	C8879	C	0.736870	0.644043	-0.035144
	H8880	H	0.726553	0.596177	-0.020252
	H8881	H	0.746202	0.655017	-0.038666
	H8882	H	0.702995	0.637383	-0.031463
	C8883	C	0.831578	0.734922	-0.009502
	C8884	C	0.841685	0.745852	-0.002759
	C8885	C	0.867484	0.750768	0.007761
	C8886	C	0.884139	0.744138	0.012760
	C8887	C	0.874020	0.732708	0.006527
	C8888	C	0.847486	0.728307	-0.005020
	H8889	H	0.904312	0.747695	0.021250
	H8890	H	0.839840	0.719538	-0.009870
	H8891	H	0.831196	0.749320	-0.004002
	C8892	C	0.722315	0.883977	0.026990
	C8893	C	0.755131	0.870161	0.049605
	C8894	C	0.750915	0.880974	0.031775
	C8895	C	0.716832	0.904647	-0.005952
	C8896	C	0.684259	0.918678	-0.028461
	C8897	C	0.687939	0.907308	-0.010802
	H8898	H	0.781682	0.851859	0.078909
	H8899	H	0.657581	0.936534	-0.057682
	C8900	C	0.721788	0.909299	-0.015768
	C8901	C	0.778184	0.869089	0.047210
	N8902	N	0.757982	0.885986	0.017119
	O8903	O	0.810303	0.848508	0.078677
	O8904	O	0.700027	0.928170	-0.045126
	C8905	C	0.715544	0.876497	0.036603
	C8906	C	0.657847	0.915322	-0.026718
	N8907	N	0.675976	0.895279	0.003127
	O8908	O	0.624587	0.934338	-0.058276
	O8909	O	0.738022	0.858175	0.066193
	C8910	C	0.599614	0.960550	-0.025256
	C8911	C	0.590428	0.963878	-0.042453
	C8912	C	0.598701	0.941158	-0.028895
	C8913	C	0.614923	0.916718	-0.000164
	C8914	C	0.623808	0.913562	0.016815
	C8915	C	0.615964	0.936241	0.003564
	H8916	H	0.578641	0.982639	-0.064145
	H8917	H	0.636593	0.894627	0.039213
	C8918	C	0.621737	0.896468	0.008360
	C8919	C	0.594722	0.937508	-0.039587
	N8920	N	0.611737	0.909943	-0.014466
	O8921	O	0.580729	0.954069	-0.064026
	O8922	O	0.632782	0.873621	0.029404
	C8923	C	0.595495	0.980589	-0.032521
	C8924	C	0.623345	0.939939	0.016119
	N8925	N	0.611184	0.966843	-0.006245
	O8926	O	0.636525	0.923912	0.039910
	O8927	O	0.581766	1.003915	-0.055843
	C8928	C	0.818218	0.872711	-0.004649
	C8929	C	0.786521	0.882705	-0.024211
	C8930	C	0.793491	0.879633	-0.008363
	C8931	C	0.829721	0.867163	0.024939
	C8932	C	0.861409	0.857211	0.044488
	C8933	C	0.854353	0.860484	0.028492
	H8934	H	0.758521	0.892008	-0.049770
	H8935	H	0.889546	0.847513	0.070342
	C8936	C	0.827353	0.866082	0.034732
	C8937	C	0.766591	0.887241	-0.021211
	N8938	N	0.789042	0.877615	0.006559
	O8939	O	0.732722	0.898978	-0.049130
	O8940	O	0.852288	0.857515	0.060842
	C8941	C	0.821240	0.872715	-0.013469
	C8942	C	0.881600	0.852540	0.041830
	N8943	N	0.859852	0.860701	0.015276
	O8944	O	0.915158	0.841818	0.069080
	O8945	O	0.796706	0.880921	-0.039217
	C8946	C	0.681842	0.536206	0.008614
	C8947	C	0.711923	0.537176	0.024975
	C8948	C	0.701984	0.562987	0.003535
	C8949	C	0.664656	0.586268	-0.031677
	C8950	C	0.634600	0.585285	-0.047987
	C8951	C	0.644448	0.559493	-0.026728
	H8952	H	0.740929	0.519158	0.052313
	H8953	H	0.605624	0.603296	-0.075303
	C8954	C	0.664250	0.610302	-0.046854
	C8955	C	0.726642	0.571274	0.011895
	N8956	N	0.702042	0.599814	-0.019808
	O8957	O	0.760390	0.557107	0.039361
	O8958	O	0.637894	0.633879	-0.075791
	C8959	C	0.682066	0.512168	0.023324
	C8960	C	0.619428	0.551214	-0.035960
	N8961	N	0.643733	0.522723	-0.004900
	O8962	O	0.585467	0.565325	-0.063837
	O8963	O	0.708654	0.488596	0.052684
	C8964	C	0.898998	0.795717	0.034745
	C8965	C	0.904641	0.772223	0.048777
	C8966	C	0.892849	0.772712	0.031965
	C8967	C	0.876568	0.795157	0.003110
	C8968	C	0.871358	0.818483	-0.010585
	C8969	C	0.883039	0.818022	0.006135
	H8970	H	0.916793	0.754960	0.070821
	H8971	H	0.858689	0.835985	-0.032957
	C8972	C	0.865963	0.789259	-0.009290
	C8973	C	0.893626	0.751516	0.039312
	N8974	N	0.876817	0.762897	0.013425
	O8975	O	0.905859	0.729174	0.062240
	O8976	O	0.851262	0.803369	-0.033411
	C8977	C	0.906484	0.802680	0.044874
	C8978	C	0.879584	0.840043	-0.003167
	N8979	N	0.893811	0.829593	0.020853
	O8980	O	0.867522	0.862264	-0.026056
	O8981	O	0.920205	0.788761	0.068351
	C8982	C	0.760620	0.722446	-0.047209
	C8983	C	0.731269	0.723310	-0.069886
	C8984	C	0.732030	0.701162	-0.054750
	C8985	C	0.759478	0.680083	-0.019855
	C8986	C	0.787803	0.679816	0.002168
	C8987	C	0.787994	0.701419	-0.012336
	H8988	H	0.710273	0.739457	-0.096786
	H8989	H	0.808772	0.663404	0.029099
	C8990	C	0.754683	0.658312	-0.010633
	C8991	C	0.708317	0.693773	-0.069288
	N8992	N	0.725267	0.667119	-0.040488
	O8993	O	0.681133	0.706975	-0.098808
	O8994	O	0.772412	0.637082	0.016641
	C8995	C	0.770873	0.741042	-0.053044
	C8996	C	0.816808	0.705797	0.005393
	N8997	N	0.805568	0.729240	-0.019998
	O8998	O	0.844573	0.692613	0.035070
	O8999	O	0.754098	0.761748	-0.079738
	C9000	C	0.528367	0.634160	0.135272
	C9001	C	0.527987	0.620102	0.135438
	C9002	C	0.514907	0.604926	0.137569
	C9003	C	0.503098	0.603262	0.140289
	C9004	C	0.504202	0.617286	0.140516
	C9005	C	0.516486	0.633010	0.137694
	H9006	H	0.492854	0.591593	0.141759
	H9007	H	0.516455	0.644296	0.137048
	H9008	H	0.537394	0.621122	0.133680
	C9009	C	0.540736	0.687544	0.110912
	C9010	C	0.531625	0.712920	0.091999
	C9011	C	0.561689	0.714046	0.108554
	C9012	C	0.598135	0.691588	0.141310
	C9013	C	0.607006	0.666310	0.159817
	C9014	C	0.577167	0.664992	0.143713
	H9015	H	0.503461	0.730415	0.066640
	H9016	H	0.635203	0.648863	0.185179
	C9017	C	0.623479	0.699937	0.151837
	C9018	C	0.562415	0.737384	0.097130
	N9019	N	0.600562	0.727258	0.125008
	O9020	O	0.536586	0.760131	0.070453
	O9021	O	0.656533	0.686721	0.177563
	C9022	C	0.516164	0.678894	0.102145
	C9023	C	0.577115	0.641050	0.157054
	N9024	N	0.540065	0.650757	0.131425
	O9025	O	0.602597	0.618078	0.183778
	O9026	O	0.483015	0.692408	0.076153
	C9027	C	0.497320	0.584626	0.115392
	C9028	C	0.484778	0.587394	0.096744
	C9029	C	0.487340	0.565578	0.107279
	C9030	C	0.502046	0.542414	0.135031
	C9031	C	0.513951	0.539861	0.153223
	C9032	C	0.511128	0.561758	0.142517
	H9033	H	0.474120	0.605234	0.075789
	H9034	H	0.524414	0.522073	0.174033
	C9035	C	0.503061	0.522369	0.141038
	C9036	C	0.476738	0.561642	0.093376
	N9037	N	0.487502	0.535165	0.115191
	O9038	O	0.462104	0.577261	0.068804
	O9039	O	0.515075	0.499632	0.163441
	C9040	C	0.498206	0.604147	0.110648
	C9041	C	0.521115	0.565991	0.155926
	N9042	N	0.512029	0.591948	0.135246
	O9043	O	0.533964	0.551025	0.179226
	O9044	O	0.488915	0.626079	0.090111
	C9045	C	0.982372	0.619593	0.151469
	C9046	C	0.986077	0.620671	0.162955
	C9047	C	0.955322	0.626851	0.145832
	C9048	C	0.923410	0.631188	0.119535
	C9049	C	0.919593	0.630250	0.107899
	C9050	C	0.950037	0.624536	0.124546
	H9051	H	1.010914	0.617187	0.183493
	H9052	H	0.894594	0.633904	0.087211
	C9053	C	0.896297	0.637009	0.107290
	C9054	C	0.949276	0.630388	0.150651
	N9055	N	0.912994	0.636974	0.126225
	O9056	O	0.970411	0.628411	0.170806
	O9057	O	0.866342	0.640687	0.085996
	C9058	C	1.009290	0.614107	0.163394
	C9059	C	0.954763	0.623018	0.117709
	N9060	N	0.990902	0.616640	0.141944
	O9061	O	0.932993	0.626241	0.096372
	O9062	O	1.040454	0.608553	0.186467
	C9063	C	0.618979	0.766376	0.129347
	C9064	C	0.605424	0.752483	0.125878
	C9065	C	0.615031	0.741274	0.129030
	C9066	C	0.638327	0.743366	0.136180
	C9067	C	0.651934	0.757021	0.140127
	C9068	C	0.642237	0.768800	0.136468
	H9069	H	0.645597	0.734677	0.138579
	H9070	H	0.652688	0.779489	0.139304
	H9071	H	0.587288	0.751005	0.120159
	C9072	C	0.478215	0.491136	0.119227
	C9073	C	0.476817	0.504797	0.118613
	C9074	C	0.487190	0.521811	0.114368
	C9075	C	0.498211	0.525538	0.110209
	C9076	C	0.498759	0.511940	0.110363
	C9077	C	0.489317	0.494382	0.115357
	H9078	H	0.506319	0.538621	0.107027
	H9079	H	0.490373	0.483564	0.116046
	H9080	H	0.467805	0.502220	0.121310
	C9081	C	0.884857	0.659021	0.121498
	C9082	C	0.900364	0.655655	0.123942
	C9083	C	0.896205	0.641412	0.122608
	C9084	C	0.876827	0.630730	0.118847
	C9085	C	0.860618	0.635255	0.115260
	C9086	C	0.864376	0.649362	0.116495
	H9087	H	0.874140	0.619265	0.118545
	H9088	H	0.852432	0.652166	0.114538
	H9089	H	0.915552	0.663717	0.127172
	C9090	C	0.622673	0.791085	0.140808
	C9091	C	0.640781	0.791632	0.159663
	C9092	C	0.624478	0.817201	0.138637
	C9093	C	0.591611	0.840489	0.101174
	C9094	C	0.573040	0.839902	0.082182
	C9095	C	0.590098	0.814434	0.103425
	H9096	H	0.666386	0.773586	0.188746
	H9097	H	0.547913	0.858015	0.053224
	C9098	C	0.583439	0.864385	0.087684
	C9099	C	0.638782	0.825440	0.150503
	N9100	N	0.613777	0.853966	0.118868
	O9101	O	0.666272	0.811299	0.180584
	O9102	O	0.557263	0.887894	0.057011
	C9103	C	0.634554	0.767735	0.155221
	C9104	C	0.580398	0.806942	0.092727
	N9105	N	0.609197	0.778956	0.125314
	O9106	O	0.554385	0.821358	0.063016
	O9107	O	0.660484	0.744181	0.185782
	C9108	C	0.688884	0.788465	0.133349
	C9109	C	0.685829	0.810071	0.115073
	C9110	C	0.714119	0.812159	0.134040
	C9111	C	0.743749	0.793710	0.169043
	C9112	C	0.747449	0.771666	0.187734
	C9113	C	0.718894	0.769799	0.168565
	H9114	H	0.662784	0.824553	0.087836
	H9115	H	0.770149	0.757457	0.214724
	C9116	C	0.767345	0.803016	0.180134
	C9117	C	0.717923	0.833808	0.121670
	N9118	N	0.749802	0.827297	0.150289
	O9119	O	0.698314	0.853426	0.093351
	O9120	O	0.795331	0.792700	0.208216
	C9121	C	0.661624	0.781811	0.119925
	C9122	C	0.712423	0.750230	0.179182
	N9123	N	0.676296	0.759865	0.147885
	O9124	O	0.732883	0.730502	0.207989
	O9125	O	0.632747	0.792579	0.091398
	C9126	C	0.519754	0.510833	0.098428
	C9127	C	0.516897	0.508327	0.088351
	C9128	C	0.548313	0.501147	0.106545
	C9129	C	0.580283	0.496772	0.132920
	C9130	C	0.583000	0.499494	0.142784
	C9131	C	0.551571	0.506695	0.124576
	H9132	H	0.492329	0.511397	0.068222
	H9133	H	0.607852	0.495960	0.163363
	C9134	C	0.608456	0.489139	0.146937
	C9135	C	0.554785	0.496773	0.102527
	N9136	N	0.590839	0.490510	0.126634
	O9137	O	0.534236	0.497967	0.083183
	O9138	O	0.640032	0.482880	0.170718
	C9139	C	0.492453	0.516865	0.085888
	C9140	C	0.545429	0.510301	0.129279
	N9141	N	0.510240	0.515172	0.106482
	O9142	O	0.565339	0.509789	0.147867
	O9143	O	0.461536	0.522032	0.063154
	C9144	C	0.931574	0.958258	0.110478
	C9145	C	0.901990	0.956406	0.094062
	C9146	C	0.912255	0.930762	0.113598
	C9147	C	0.949460	0.908492	0.147177
	C9148	C	0.979043	0.910401	0.163533
	C9149	C	0.968841	0.936062	0.144039
	H9150	H	0.873123	0.973647	0.068036
	H9151	H	1.007919	0.893126	0.189614
	C9152	C	0.950123	0.884299	0.160425
	C9153	C	0.887944	0.921673	0.104310
	N9154	N	0.912472	0.893654	0.133652
	O9155	O	0.854453	0.934873	0.077842
	O9156	O	0.976529	0.861467	0.187789
	C9157	C	0.930434	0.982536	0.097034
	C9158	C	0.992877	0.945493	0.153097
	N9159	N	0.967948	0.973466	0.123701
	O9160	O	1.026389	0.932658	0.179444
	O9161	O	0.903766	1.005268	0.069604
	C9162	C	0.826435	0.608193	0.124984
	C9163	C	0.829131	0.594552	0.142660
	C9164	C	0.795636	0.607148	0.120015
	C9165	C	0.761522	0.631269	0.082246
	C9166	C	0.758614	0.644599	0.064504
	C9167	C	0.792374	0.632420	0.087236
	H9168	H	0.855668	0.576002	0.171980
	H9169	H	0.732363	0.663568	0.035252
	C9170	C	0.732189	0.639948	0.066748
	C9171	C	0.789379	0.599658	0.130008
	N9172	N	0.751273	0.620714	0.096947
	O9173	O	0.811633	0.580167	0.159721
	O9174	O	0.699197	0.659365	0.035360
	C9175	C	0.857357	0.602333	0.140831
	C9176	C	0.800420	0.643039	0.077704
	N9177	N	0.840256	0.625119	0.111199
	O9178	O	0.778483	0.663164	0.048064
	O9179	O	0.890394	0.582943	0.172143
	C9180	C	0.886241	0.700734	0.117247
	C9181	C	0.876197	0.723447	0.103087
	C9182	C	0.887132	0.718994	0.121953
	C9183	C	0.908253	0.693326	0.153780
	C9184	C	0.917974	0.670740	0.167752
	C9185	C	0.905758	0.675465	0.148099
	H9186	H	0.860116	0.743296	0.078588
	H9187	H	0.932628	0.651127	0.191318
	C9188	C	0.914194	0.695546	0.166499
	C9189	C	0.877180	0.738799	0.112299
	N9190	N	0.891953	0.723382	0.138771
	O9191	O	0.859476	0.762898	0.087086
	O9192	O	0.932495	0.677865	0.193758
	C9193	C	0.877488	0.697906	0.103354
	C9194	C	0.908523	0.656146	0.154025
	N9195	N	0.891485	0.670670	0.126661
	O9196	O	0.920936	0.633045	0.176319
	O9197	O	0.861568	0.714789	0.077698
	C9198	C	0.655487	0.890279	0.124710
	C9199	C	0.645148	0.901615	0.120935
	C9200	C	0.623642	0.897180	0.116019
	C9201	C	0.612947	0.881429	0.115351
	C9202	C	0.624290	0.870011	0.119799
	C9203	C	0.645364	0.874338	0.124330
	H9204	H	0.596508	0.878125	0.111661
	H9205	H	0.653493	0.865646	0.127270
	H9206	H	0.653124	0.913929	0.121218
	C9207	C	0.763279	0.874880	0.142375
	C9208	C	0.774580	0.882417	0.137220
	C9209	C	0.777808	0.871007	0.136835
	C9210	C	0.770401	0.852381	0.141809
	C9211	C	0.758969	0.845484	0.146606
	C9212	C	0.755101	0.856636	0.146780
	H9213	H	0.773067	0.843605	0.141592
	H9214	H	0.745925	0.851205	0.150270
	H9215	H	0.780417	0.896742	0.133456
	C9216	C	0.614761	0.479182	0.121997
	C9217	C	0.602047	0.477858	0.123859
	C9218	C	0.604122	0.491171	0.125200
	C9219	C	0.618001	0.505957	0.124096
	C9220	C	0.630648	0.506862	0.122383
	C9221	C	0.629400	0.493471	0.121517
	H9222	H	0.618733	0.516752	0.124260
	H9223	H	0.639541	0.494219	0.120442
	H9224	H	0.590497	0.466962	0.123869
	C9225	C	0.891645	0.845364	0.143292
	C9226	C	0.904043	0.861075	0.140627
	C9227	C	0.901037	0.876722	0.137407
	C9228	C	0.886444	0.876625	0.137281
	C9229	C	0.874407	0.860707	0.140115
	C9230	C	0.876548	0.845127	0.142864
	H9231	H	0.884504	0.888649	0.135041
	H9232	H	0.866991	0.833011	0.144909
	H9233	H	0.915539	0.861284	0.140835
	C9234	C	0.723983	0.648443	0.088830
	C9235	C	0.712112	0.634194	0.093638
	C9236	C	0.713058	0.615458	0.099224
	C9237	C	0.725271	0.611004	0.099793
	C9238	C	0.737205	0.625393	0.095186
	C9239	C	0.736815	0.644088	0.089797
	H9240	H	0.726483	0.596230	0.104673
	H9241	H	0.746148	0.655060	0.086277
	H9242	H	0.702952	0.637418	0.093491
	C9243	C	0.831553	0.734949	0.115463
	C9244	C	0.841663	0.745877	0.122210
	C9245	C	0.867458	0.750795	0.132725
	C9246	C	0.884106	0.744172	0.137715
	C9247	C	0.873982	0.732746	0.131477
	C9248	C	0.847452	0.728341	0.119935
	H9249	H	0.904276	0.747731	0.146201
	H9250	H	0.839804	0.719574	0.115083
	H9251	H	0.831179	0.749341	0.120973
	C9252	C	0.722330	0.883968	0.152009
	C9253	C	0.755147	0.870155	0.174622
	C9254	C	0.750927	0.880967	0.156790
	C9255	C	0.716840	0.904635	0.119064
	C9256	C	0.684267	0.918663	0.096555
	C9257	C	0.687950	0.907294	0.114217
	H9258	H	0.781701	0.851857	0.203927
	H9259	H	0.657586	0.936515	0.067335
	C9260	C	0.721795	0.909287	0.109247
	C9261	C	0.778197	0.869084	0.172226
	N9262	N	0.757990	0.885975	0.142133
	O9263	O	0.810313	0.848498	0.203692
	O9264	O	0.700032	0.928157	0.079888
	C9265	C	0.715563	0.876489	0.161624
	C9266	C	0.657859	0.915305	0.098303
	N9267	N	0.675993	0.895265	0.128150
	O9268	O	0.624598	0.934317	0.066745
	O9269	O	0.738044	0.858171	0.191215
	C9270	C	0.599608	0.960560	0.099735
	C9271	C	0.590427	0.963883	0.082544
	C9272	C	0.598700	0.941161	0.096105
	C9273	C	0.614914	0.916725	0.124830
	C9274	C	0.623794	0.913573	0.141804
	C9275	C	0.615953	0.936253	0.128552
	H9276	H	0.578645	0.982641	0.060855
	H9277	H	0.636574	0.894641	0.164199
	C9278	C	0.621728	0.896472	0.133357
	C9279	C	0.594724	0.937506	0.085418
	N9280	N	0.611744	0.909941	0.110543
	O9281	O	0.580755	0.954061	0.060995
	O9282	O	0.632762	0.873628	0.154394
	C9283	C	0.595488	0.980601	0.092468
	C9284	C	0.623331	0.939955	0.141103
	N9285	N	0.611174	0.966858	0.118740
	O9286	O	0.636509	0.923931	0.164892
	O9287	O	0.581762	1.003926	0.069147
	C9288	C	0.818211	0.872700	0.120355
	C9289	C	0.786515	0.882690	0.100797
	C9290	C	0.793486	0.879616	0.116645
	C9291	C	0.829715	0.867151	0.149944
	C9292	C	0.861401	0.857204	0.169490
	C9293	C	0.854345	0.860477	0.153494
	H9294	H	0.758515	0.891991	0.075239
	H9295	H	0.889537	0.847509	0.195342
	C9296	C	0.827348	0.866069	0.159738
	C9297	C	0.766587	0.887220	0.103801
	N9298	N	0.789039	0.877597	0.131569
	O9299	O	0.732720	0.898952	0.075886
	O9300	O	0.852282	0.857504	0.185847
	C9301	C	0.821232	0.872707	0.111533
	C9302	C	0.881591	0.852537	0.166828
	N9303	N	0.859843	0.860698	0.140274
	O9304	O	0.915149	0.841818	0.194077
	O9305	O	0.796698	0.880913	0.085786
	C9306	C	0.681806	0.536240	0.133573
	C9307	C	0.711884	0.537214	0.149931
	C9308	C	0.701939	0.563027	0.128485
	C9309	C	0.664607	0.586306	0.093269
	C9310	C	0.634555	0.585319	0.076962
	C9311	C	0.644408	0.559525	0.098227
	H9312	H	0.740892	0.519198	0.177272
	H9313	H	0.605576	0.603328	0.049644
	C9314	C	0.664195	0.610342	0.078086
	C9315	C	0.726593	0.571318	0.136841
	N9316	N	0.701988	0.599857	0.105133
	O9317	O	0.760342	0.557153	0.164308
	O9318	O	0.637834	0.633919	0.049144
	C9319	C	0.682037	0.512199	0.148289
	C9320	C	0.619393	0.551242	0.089000
	N9321	N	0.643704	0.522751	0.120065
	O9322	O	0.585432	0.565350	0.061123
	O9323	O	0.708629	0.488628	0.177654
	C9324	C	0.898982	0.795729	0.159727
	C9325	C	0.904620	0.772238	0.173754
	C9326	C	0.892830	0.772729	0.156940
	C9327	C	0.876554	0.795175	0.128089
	C9328	C	0.871350	0.818498	0.114400
	C9329	C	0.883028	0.818035	0.131121
	H9330	H	0.916767	0.754974	0.195794
	H9331	H	0.858686	0.836001	0.092032
	C9332	C	0.865949	0.789281	0.115687
	C9333	C	0.893603	0.751537	0.164282
	N9334	N	0.876796	0.762920	0.138396
	O9335	O	0.905831	0.729196	0.187207
	O9336	O	0.851254	0.803391	0.091569
	C9337	C	0.906465	0.802689	0.169857
	C9338	C	0.879576	0.840053	0.121823
	N9339	N	0.893797	0.829601	0.145840
	O9340	O	0.867519	0.862274	0.098938
	O9341	O	0.920183	0.788769	0.193333
	C9342	C	0.760596	0.722471	0.077761
	C9343	C	0.731237	0.723340	0.055080
	C9344	C	0.731999	0.701192	0.070216
	C9345	C	0.759456	0.680107	0.105117
	C9346	C	0.787792	0.679834	0.127146
	C9347	C	0.787979	0.701438	0.112640
	H9348	H	0.710233	0.739491	0.028175
	H9349	H	0.808769	0.663417	0.154082
	C9350	C	0.754658	0.658337	0.114336
	C9351	C	0.708275	0.693809	0.055670
	N9352	N	0.725229	0.667152	0.084471
	O9353	O	0.681080	0.707018	0.026143
	O9354	O	0.772393	0.637103	0.141613
	C9355	C	0.770847	0.741068	0.071924
	C9356	C	0.816797	0.705814	0.130370
	N9357	N	0.805548	0.729263	0.104974
	O9358	O	0.844571	0.692625	0.160053
	O9359	O	0.754066	0.761777	0.045226
	C9360	C	0.528315	0.634205	0.260208
	C9361	C	0.527937	0.620145	0.260376
	C9362	C	0.514863	0.604965	0.262515
	C9363	C	0.503056	0.603301	0.265236
	C9364	C	0.504160	0.617328	0.265461
	C9365	C	0.516439	0.633054	0.262635
	H9366	H	0.492816	0.591630	0.266711
	H9367	H	0.516408	0.644341	0.261987
	H9368	H	0.537342	0.621165	0.258617
	C9369	C	0.540662	0.687599	0.235821
	C9370	C	0.531540	0.712980	0.216895
	C9371	C	0.561599	0.714111	0.233444
	C9372	C	0.598050	0.691654	0.266206
	C9373	C	0.606932	0.666372	0.284726
	C9374	C	0.577098	0.665048	0.268628
	H9375	H	0.503371	0.730475	0.191530
	H9376	H	0.635134	0.648925	0.310093
	C9377	C	0.623386	0.700010	0.276724
	C9378	C	0.562313	0.737457	0.222005
	N9379	N	0.600458	0.727335	0.249880
	O9380	O	0.536476	0.760205	0.195318
	O9381	O	0.656443	0.686795	0.302452
	C9382	C	0.516097	0.678945	0.227063
	C9383	C	0.577056	0.641102	0.281981
	N9384	N	0.540007	0.650806	0.256354
	O9385	O	0.602545	0.618128	0.308712
	O9386	O	0.482946	0.692456	0.201070
	C9387	C	0.497283	0.584653	0.240351
	C9388	C	0.484741	0.587417	0.221705
	C9389	C	0.487313	0.565596	0.232250
	C9390	C	0.502027	0.542433	0.260007
	C9391	C	0.513930	0.539884	0.278196
	C9392	C	0.511098	0.561785	0.267481
	H9393	H	0.474076	0.605257	0.200745
	H9394	H	0.524400	0.522095	0.299011
	C9395	C	0.503052	0.522382	0.266024
	C9396	C	0.476711	0.561656	0.218350
	N9397	N	0.487494	0.535174	0.240180
	O9398	O	0.462091	0.577269	0.193788
	O9399	O	0.515073	0.499644	0.288433
	C9400	C	0.498164	0.604178	0.235600
	C9401	C	0.521082	0.566023	0.280885
	N9402	N	0.511989	0.591983	0.260198
	O9403	O	0.533934	0.551058	0.304186
	O9404	O	0.488869	0.626111	0.215059
	C9405	C	0.982359	0.619610	0.276447
	C9406	C	0.986083	0.620669	0.287956
	C9407	C	0.955331	0.626847	0.270837
	C9408	C	0.923405	0.631203	0.244522
	C9409	C	0.919570	0.630284	0.232864
	C9410	C	0.950011	0.624570	0.249508
	H9411	H	1.010930	0.617170	0.308508
	H9412	H	0.894560	0.633952	0.212163
	C9413	C	0.896299	0.637021	0.232286
	C9414	C	0.949306	0.630364	0.275682
	N9415	N	0.913016	0.636966	0.251244
	O9416	O	0.970448	0.628382	0.295843
	O9417	O	0.866336	0.640711	0.210980
	C9418	C	1.009268	0.614129	0.288363
	C9419	C	0.954722	0.623066	0.242654
	N9420	N	0.990865	0.616679	0.266894
	O9421	O	0.932940	0.626303	0.221302
	O9422	O	1.040438	0.608567	0.311442
	C9423	C	0.618851	0.766470	0.254192
	C9424	C	0.605302	0.752574	0.250729
	C9425	C	0.614916	0.741360	0.253890
	C9426	C	0.638213	0.743450	0.261041
	C9427	C	0.651814	0.757110	0.264981
	C9428	C	0.642110	0.768894	0.261314
	H9429	H	0.645492	0.734756	0.263449
	H9430	H	0.652558	0.779585	0.264146
	H9431	H	0.587166	0.751095	0.245009
	C9432	C	0.478224	0.491135	0.244234
	C9433	C	0.476821	0.504799	0.243613
	C9434	C	0.487190	0.521815	0.239364
	C9435	C	0.498215	0.525540	0.235209
	C9436	C	0.498769	0.511938	0.235370
	C9437	C	0.489331	0.494378	0.240368
	H9438	H	0.506321	0.538624	0.232026
	H9439	H	0.490390	0.483557	0.241060
	H9440	H	0.467806	0.502224	0.246308
	C9441	C	0.884909	0.658984	0.246555
	C9442	C	0.900404	0.655628	0.248984
	C9443	C	0.896242	0.641391	0.247645
	C9444	C	0.876874	0.630701	0.243894
	C9445	C	0.860678	0.635213	0.240323
	C9446	C	0.864437	0.649317	0.241562
	H9447	H	0.874185	0.619239	0.243588
	H9448	H	0.852502	0.652112	0.239617
	H9449	H	0.915584	0.663696	0.252207
	C9450	C	0.622559	0.791161	0.265674
	C9451	C	0.640672	0.791696	0.284540
	C9452	C	0.624384	0.817261	0.263528
	C9453	C	0.591526	0.840557	0.226067
	C9454	C	0.572950	0.839982	0.207063
	C9455	C	0.589993	0.814518	0.228292
	H9456	H	0.666271	0.773645	0.313623
	H9457	H	0.547830	0.858101	0.178107
	C9458	C	0.583371	0.864444	0.212595
	C9459	C	0.638699	0.825486	0.275410
	N9460	N	0.613709	0.854013	0.243787
	O9461	O	0.666185	0.811336	0.305495
	O9462	O	0.557207	0.887957	0.181928
	C9463	C	0.634426	0.767818	0.280073
	C9464	C	0.580286	0.807037	0.217583
	N9465	N	0.609071	0.779049	0.250161
	O9466	O	0.554278	0.821461	0.187869
	O9467	O	0.660346	0.744261	0.310628
	C9468	C	0.688804	0.788534	0.258245
	C9469	C	0.685769	0.810133	0.239985
	C9470	C	0.714070	0.812209	0.258967
	C9471	C	0.743691	0.793754	0.293969
	C9472	C	0.747371	0.771716	0.312645
	C9473	C	0.718807	0.769861	0.293460
	H9474	H	0.662731	0.824620	0.212749
	H9475	H	0.770065	0.757503	0.339633
	C9476	C	0.767300	0.803047	0.305078
	C9477	C	0.717896	0.833847	0.246619
	N9478	N	0.749774	0.827327	0.275245
	O9479	O	0.698303	0.853465	0.218309
	O9480	O	0.795283	0.792724	0.333164
	C9481	C	0.661529	0.781893	0.244801
	C9482	C	0.712317	0.750300	0.304058
	N9483	N	0.676187	0.759948	0.272751
	O9484	O	0.732766	0.730571	0.332860
	O9485	O	0.632651	0.792672	0.216267
	C9486	C	0.519771	0.510819	0.223447
	C9487	C	0.516919	0.508306	0.213376
	C9488	C	0.548336	0.501123	0.231574
	C9489	C	0.580305	0.496752	0.257945
	C9490	C	0.583017	0.499480	0.267802
	C9491	C	0.551587	0.506684	0.249591
	H9492	H	0.492352	0.511373	0.193251
	H9493	H	0.607868	0.495948	0.288379
	C9494	C	0.608479	0.489116	0.271965
	C9495	C	0.554814	0.496740	0.227564
	N9496	N	0.590862	0.490485	0.251664
	O9497	O	0.534259	0.497942	0.208212
	O9498	O	0.640055	0.482856	0.295745
	C9499	C	0.492467	0.516856	0.210902
	C9500	C	0.545440	0.510297	0.254288
	N9501	N	0.510252	0.515167	0.231491
	O9502	O	0.565347	0.509790	0.272871
	O9503	O	0.461551	0.522021	0.188169
	C9504	C	0.931585	0.958255	0.235486
	C9505	C	0.902001	0.956403	0.219068
	C9506	C	0.912267	0.930759	0.238604
	C9507	C	0.949472	0.908489	0.272185
	C9508	C	0.979056	0.910398	0.288542
	C9509	C	0.968854	0.936058	0.269048
	H9510	H	0.873133	0.973644	0.193040
	H9511	H	1.007932	0.893123	0.314624
	C9512	C	0.950135	0.884296	0.285433
	C9513	C	0.887956	0.921669	0.229316
	N9514	N	0.912482	0.893651	0.258655
	O9515	O	0.854460	0.934873	0.202837
	O9516	O	0.976542	0.861463	0.312798
	C9517	C	0.930444	0.982533	0.222042
	C9518	C	0.992889	0.945490	0.278107
	N9519	N	0.967959	0.973463	0.248710
	O9520	O	1.026402	0.932655	0.304455
	O9521	O	0.903776	1.005265	0.194610
	C9522	C	0.826510	0.608141	0.250063
	C9523	C	0.829209	0.594503	0.267740
	C9524	C	0.795712	0.607095	0.245095
	C9525	C	0.761594	0.631209	0.207324
	C9526	C	0.758683	0.644537	0.189581
	C9527	C	0.792445	0.632362	0.212314
	H9528	H	0.855749	0.575958	0.297060
	H9529	H	0.732428	0.663501	0.160329
	C9530	C	0.732258	0.639886	0.191824
	C9531	C	0.789454	0.599606	0.255087
	N9532	N	0.751345	0.620659	0.222024
	O9533	O	0.811718	0.580129	0.284802
	O9534	O	0.699261	0.659296	0.160436
	C9535	C	0.857431	0.602286	0.265907
	C9536	C	0.800488	0.642983	0.202779
	N9537	N	0.840325	0.625070	0.236271
	O9538	O	0.778547	0.663105	0.173137
	O9539	O	0.890471	0.582900	0.297220
	C9540	C	0.886298	0.700692	0.242312
	C9541	C	0.876257	0.723404	0.228154
	C9542	C	0.887186	0.718951	0.247017
	C9543	C	0.908298	0.693284	0.278839
	C9544	C	0.918017	0.670698	0.292808
	C9545	C	0.905808	0.675424	0.273159
	H9546	H	0.860182	0.743253	0.203658
	H9547	H	0.932664	0.651086	0.316369
	C9548	C	0.914233	0.695504	0.291553
	C9549	C	0.877234	0.738756	0.237363
	N9550	N	0.891997	0.723340	0.263828
	O9551	O	0.859537	0.762854	0.212154
	O9552	O	0.932524	0.677823	0.318807
	C9553	C	0.877548	0.697865	0.228419
	C9554	C	0.908571	0.656107	0.279082
	N9555	N	0.891538	0.670631	0.251721
	O9556	O	0.920979	0.633006	0.301372
	O9557	O	0.861635	0.714747	0.202768
	C9558	C	0.655462	0.890295	0.249680
	C9559	C	0.645136	0.901622	0.245919
	C9560	C	0.623624	0.897190	0.240997
	C9561	C	0.612911	0.881452	0.240308
	C9562	C	0.624241	0.870044	0.244741
	C9563	C	0.645321	0.874367	0.249279
	H9564	H	0.596466	0.878152	0.236612
	H9565	H	0.653442	0.865681	0.252209
	H9566	H	0.653127	0.913926	0.246219
	C9567	C	0.763270	0.874895	0.267358
	C9568	C	0.774579	0.882430	0.262210
	C9569	C	0.777808	0.871024	0.261821
	C9570	C	0.770394	0.852402	0.266787
	C9571	C	0.758952	0.845508	0.271576
	C9572	C	0.755083	0.856656	0.271751
	H9573	H	0.773060	0.843629	0.266568
	H9574	H	0.745901	0.851227	0.275234
	H9575	H	0.780421	0.896753	0.258452
	C9576	C	0.614776	0.479163	0.247017
	C9577	C	0.602064	0.477837	0.248881
	C9578	C	0.604144	0.491147	0.250227
	C9579	C	0.618026	0.505931	0.249126
	C9580	C	0.630671	0.506837	0.247412
	C9581	C	0.629417	0.493451	0.246540
	H9582	H	0.618762	0.516724	0.249294
	H9583	H	0.639557	0.494199	0.245463
	H9584	H	0.590514	0.466942	0.248890
	C9585	C	0.891657	0.845359	0.268300
	C9586	C	0.904055	0.861070	0.265635
	C9587	C	0.901047	0.876720	0.262412
	C9588	C	0.886454	0.876625	0.262283
	C9589	C	0.874417	0.860706	0.265119
	C9590	C	0.876559	0.845124	0.267870
	H9591	H	0.884511	0.888651	0.260040
	H9592	H	0.867003	0.833008	0.269917
	H9593	H	0.915552	0.861277	0.265844
	C9594	C	0.724031	0.648403	0.213881
	C9595	C	0.712162	0.634153	0.218691
	C9596	C	0.713115	0.615414	0.224285
	C9597	C	0.725336	0.610955	0.224862
	C9598	C	0.737270	0.625343	0.220255
	C9599	C	0.736870	0.644043	0.214856
	H9600	H	0.726553	0.596177	0.229748
	H9601	H	0.746202	0.655017	0.211334
	H9602	H	0.702995	0.637383	0.218537
	C9603	C	0.831578	0.734922	0.240498
	C9604	C	0.841685	0.745852	0.247241
	C9605	C	0.867484	0.750768	0.257761
	C9606	C	0.884139	0.744138	0.262760
	C9607	C	0.874020	0.732708	0.256527
	C9608	C	0.847486	0.728307	0.244980
	H9609	H	0.904312	0.747695	0.271250
	H9610	H	0.839840	0.719538	0.240130
	H9611	H	0.831196	0.749320	0.245998
	C9612	C	0.722315	0.883977	0.276990
	C9613	C	0.755131	0.870161	0.299605
	C9614	C	0.750915	0.880974	0.281775
	C9615	C	0.716832	0.904647	0.244048
	C9616	C	0.684259	0.918678	0.221539
	C9617	C	0.687939	0.907308	0.239198
	H9618	H	0.781682	0.851859	0.328909
	H9619	H	0.657581	0.936534	0.192318
	C9620	C	0.721788	0.909299	0.234232
	C9621	C	0.778184	0.869089	0.297210
	N9622	N	0.757982	0.885986	0.267119
	O9623	O	0.810303	0.848508	0.328677
	O9624	O	0.700027	0.928170	0.204874
	C9625	C	0.715544	0.876497	0.286603
	C9626	C	0.657847	0.915322	0.223282
	N9627	N	0.675976	0.895279	0.253127
	O9628	O	0.624587	0.934338	0.191724
	O9629	O	0.738022	0.858175	0.316193
	C9630	C	0.599614	0.960550	0.224744
	C9631	C	0.590428	0.963878	0.207547
	C9632	C	0.598701	0.941158	0.221105
	C9633	C	0.614923	0.916718	0.249836
	C9634	C	0.623808	0.913562	0.266815
	C9635	C	0.615964	0.936241	0.253564
	H9636	H	0.578641	0.982639	0.185855
	H9637	H	0.636593	0.894627	0.289213
	C9638	C	0.621737	0.896468	0.258360
	C9639	C	0.594722	0.937508	0.210413
	N9640	N	0.611737	0.909943	0.235534
	O9641	O	0.580729	0.954069	0.185974
	O9642	O	0.632782	0.873621	0.279404
	C9643	C	0.595495	0.980589	0.217479
	C9644	C	0.623345	0.939939	0.266119
	N9645	N	0.611184	0.966843	0.243755
	O9646	O	0.636525	0.923912	0.289910
	O9647	O	0.581766	1.003915	0.194157
	C9648	C	0.818218	0.872711	0.245351
	C9649	C	0.786521	0.882705	0.225789
	C9650	C	0.793491	0.879633	0.241637
	C9651	C	0.829721	0.867163	0.274939
	C9652	C	0.861409	0.857211	0.294488
	C9653	C	0.854353	0.860484	0.278492
	H9654	H	0.758521	0.892008	0.200230
	H9655	H	0.889546	0.847513	0.320342
	C9656	C	0.827353	0.866082	0.284732
	C9657	C	0.766591	0.887241	0.228789
	N9658	N	0.789042	0.877615	0.256559
	O9659	O	0.732722	0.898978	0.200870
	O9660	O	0.852288	0.857515	0.310842
	C9661	C	0.821240	0.872715	0.236531
	C9662	C	0.881600	0.852540	0.291830
	N9663	N	0.859852	0.860701	0.265276
	O9664	O	0.915158	0.841818	0.319080
	O9665	O	0.796706	0.880921	0.210783
	C9666	C	0.681842	0.536206	0.258614
	C9667	C	0.711923	0.537176	0.274975
	C9668	C	0.701984	0.562987	0.253535
	C9669	C	0.664656	0.586268	0.218323
	C9670	C	0.634600	0.585285	0.202013
	C9671	C	0.644448	0.559493	0.223272
	H9672	H	0.740929	0.519158	0.302313
	H9673	H	0.605624	0.603296	0.174697
	C9674	C	0.664250	0.610302	0.203146
	C9675	C	0.726642	0.571274	0.261895
	N9676	N	0.702042	0.599814	0.230192
	O9677	O	0.760390	0.557107	0.289361
	O9678	O	0.637894	0.633879	0.174209
	C9679	C	0.682066	0.512168	0.273324
	C9680	C	0.619428	0.551214	0.214040
	N9681	N	0.643733	0.522723	0.245100
	O9682	O	0.585467	0.565325	0.186163
	O9683	O	0.708654	0.488596	0.302684
	C9684	C	0.898998	0.795717	0.284745
	C9685	C	0.904641	0.772223	0.298777
	C9686	C	0.892849	0.772712	0.281965
	C9687	C	0.876568	0.795157	0.253110
	C9688	C	0.871358	0.818483	0.239415
	C9689	C	0.883039	0.818022	0.256135
	H9690	H	0.916793	0.754960	0.320821
	H9691	H	0.858689	0.835985	0.217043
	C9692	C	0.865963	0.789259	0.240710
	C9693	C	0.893626	0.751516	0.289312
	N9694	N	0.876817	0.762897	0.263425
	O9695	O	0.905859	0.729174	0.312240
	O9696	O	0.851262	0.803369	0.216589
	C9697	C	0.906484	0.802680	0.294874
	C9698	C	0.879584	0.840043	0.246833
	N9699	N	0.893811	0.829593	0.270853
	O9700	O	0.867522	0.862264	0.223944
	O9701	O	0.920205	0.788761	0.318351
	C9702	C	0.760620	0.722446	0.202791
	C9703	C	0.731269	0.723310	0.180114
	C9704	C	0.732030	0.701162	0.195250
	C9705	C	0.759478	0.680083	0.230145
	C9706	C	0.787803	0.679816	0.252168
	C9707	C	0.787994	0.701419	0.237664
	H9708	H	0.710273	0.739457	0.153214
	H9709	H	0.808772	0.663404	0.279099
	C9710	C	0.754683	0.658312	0.239367
	C9711	C	0.708317	0.693773	0.180712
	N9712	N	0.725267	0.667119	0.209512
	O9713	O	0.681133	0.706975	0.151192
	O9714	O	0.772412	0.637082	0.266641
	C9715	C	0.770873	0.741042	0.196956
	C9716	C	0.816808	0.705797	0.255393
	N9717	N	0.805568	0.729240	0.230002
	O9718	O	0.844573	0.692613	0.285070
	O9719	O	0.754098	0.761748	0.170262
	C9720	C	0.528367	0.634160	0.385272
	C9721	C	0.527987	0.620102	0.385438
	C9722	C	0.514907	0.604926	0.387569
	C9723	C	0.503098	0.603262	0.390289
	C9724	C	0.504202	0.617286	0.390516
	C9725	C	0.516486	0.633010	0.387694
	H9726	H	0.492854	0.591593	0.391759
	H9727	H	0.516455	0.644296	0.387048
	H9728	H	0.537394	0.621122	0.383680
	C9729	C	0.540736	0.687544	0.360912
	C9730	C	0.531625	0.712920	0.341999
	C9731	C	0.561689	0.714046	0.358554
	C9732	C	0.598135	0.691588	0.391310
	C9733	C	0.607006	0.666310	0.409817
	C9734	C	0.577167	0.664992	0.393713
	H9735	H	0.503461	0.730415	0.316640
	H9736	H	0.635203	0.648863	0.435179
	C9737	C	0.623479	0.699937	0.401837
	C9738	C	0.562415	0.737384	0.347130
	N9739	N	0.600562	0.727258	0.375008
	O9740	O	0.536586	0.760131	0.320453
	O9741	O	0.656533	0.686721	0.427563
	C9742	C	0.516164	0.678894	0.352145
	C9743	C	0.577115	0.641050	0.407054
	N9744	N	0.540065	0.650757	0.381425
	O9745	O	0.602597	0.618078	0.433778
	O9746	O	0.483015	0.692408	0.326153
	C9747	C	0.497320	0.584626	0.365392
	C9748	C	0.484778	0.587394	0.346744
	C9749	C	0.487340	0.565578	0.357279
	C9750	C	0.502046	0.542414	0.385031
	C9751	C	0.513951	0.539861	0.403223
	C9752	C	0.511128	0.561758	0.392517
	H9753	H	0.474120	0.605234	0.325789
	H9754	H	0.524414	0.522073	0.424033
	C9755	C	0.503061	0.522369	0.391038
	C9756	C	0.476738	0.561642	0.343376
	N9757	N	0.487502	0.535165	0.365191
	O9758	O	0.462104	0.577261	0.318804
	O9759	O	0.515075	0.499632	0.413441
	C9760	C	0.498206	0.604147	0.360648
	C9761	C	0.521115	0.565991	0.405926
	N9762	N	0.512029	0.591948	0.385246
	O9763	O	0.533964	0.551025	0.429226
	O9764	O	0.488915	0.626079	0.340111
	C9765	C	0.982372	0.619593	0.401469
	C9766	C	0.986077	0.620671	0.412955
	C9767	C	0.955322	0.626851	0.395832
	C9768	C	0.923410	0.631188	0.369535
	C9769	C	0.919593	0.630250	0.357899
	C9770	C	0.950037	0.624536	0.374546
	H9771	H	1.010914	0.617187	0.433493
	H9772	H	0.894594	0.633904	0.337211
	C9773	C	0.896297	0.637009	0.357290
	C9774	C	0.949276	0.630388	0.400651
	N9775	N	0.912994	0.636974	0.376225
	O9776	O	0.970411	0.628411	0.420806
	O9777	O	0.866342	0.640687	0.335996
	C9778	C	1.009290	0.614107	0.413394
	C9779	C	0.954763	0.623018	0.367709
	N9780	N	0.990902	0.616640	0.391944
	O9781	O	0.932993	0.626241	0.346372
	O9782	O	1.040454	0.608553	0.436467
	C9783	C	0.618979	0.766376	0.379347
	C9784	C	0.605424	0.752483	0.375878
	C9785	C	0.615031	0.741274	0.379030
	C9786	C	0.638327	0.743366	0.386180
	C9787	C	0.651934	0.757021	0.390127
	C9788	C	0.642237	0.768800	0.386468
	H9789	H	0.645597	0.734677	0.388579
	H9790	H	0.652688	0.779489	0.389304
	H9791	H	0.587288	0.751005	0.370159
	C9792	C	0.478215	0.491136	0.369227
	C9793	C	0.476817	0.504797	0.368613
	C9794	C	0.487190	0.521811	0.364368
	C9795	C	0.498211	0.525538	0.360209
	C9796	C	0.498759	0.511940	0.360363
	C9797	C	0.489317	0.494382	0.365357
	H9798	H	0.506319	0.538621	0.357027
	H9799	H	0.490373	0.483564	0.366046
	H9800	H	0.467805	0.502220	0.371310
	C9801	C	0.884857	0.659021	0.371498
	C9802	C	0.900364	0.655655	0.373942
	C9803	C	0.896205	0.641412	0.372608
	C9804	C	0.876827	0.630730	0.368847
	C9805	C	0.860618	0.635255	0.365260
	C9806	C	0.864376	0.649362	0.366495
	H9807	H	0.874140	0.619265	0.368545
	H9808	H	0.852432	0.652166	0.364538
	H9809	H	0.915552	0.663717	0.377172
	C9810	C	0.622673	0.791085	0.390808
	C9811	C	0.640781	0.791632	0.409663
	C9812	C	0.624478	0.817201	0.388637
	C9813	C	0.591611	0.840489	0.351174
	C9814	C	0.573040	0.839902	0.332182
	C9815	C	0.590098	0.814434	0.353425
	H9816	H	0.666386	0.773586	0.438746
	H9817	H	0.547913	0.858015	0.303224
	C9818	C	0.583439	0.864385	0.337684
	C9819	C	0.638782	0.825440	0.400503
	N9820	N	0.613777	0.853966	0.368868
	O9821	O	0.666272	0.811299	0.430584
	O9822	O	0.557263	0.887894	0.307011
	C9823	C	0.634554	0.767735	0.405221
	C9824	C	0.580398	0.806942	0.342727
	N9825	N	0.609197	0.778956	0.375314
	O9826	O	0.554385	0.821358	0.313016
	O9827	O	0.660484	0.744181	0.435782
	C9828	C	0.688884	0.788465	0.383349
	C9829	C	0.685829	0.810071	0.365073
	C9830	C	0.714119	0.812159	0.384040
	C9831	C	0.743749	0.793710	0.419043
	C9832	C	0.747449	0.771666	0.437734
	C9833	C	0.718894	0.769799	0.418565
	H9834	H	0.662784	0.824553	0.337836
	H9835	H	0.770149	0.757457	0.464724
	C9836	C	0.767345	0.803016	0.430134
	C9837	C	0.717923	0.833808	0.371670
	N9838	N	0.749802	0.827297	0.400289
	O9839	O	0.698314	0.853426	0.343351
	O9840	O	0.795331	0.792700	0.458216
	C9841	C	0.661624	0.781811	0.369925
	C9842	C	0.712423	0.750230	0.429182
	N9843	N	0.676296	0.759865	0.397885
	O9844	O	0.732883	0.730502	0.457989
	O9845	O	0.632747	0.792579	0.341398
	C9846	C	0.519754	0.510833	0.348428
	C9847	C	0.516897	0.508327	0.338351
	C9848	C	0.548313	0.501147	0.356545
	C9849	C	0.580283	0.496772	0.382920
	C9850	C	0.583000	0.499494	0.392784
	C9851	C	0.551571	0.506695	0.374576
	H9852	H	0.492329	0.511397	0.318222
	H9853	H	0.607852	0.495960	0.413363
	C9854	C	0.608456	0.489139	0.396937
	C9855	C	0.554785	0.496773	0.352527
	N9856	N	0.590839	0.490510	0.376634
	O9857	O	0.534236	0.497967	0.333183
	O9858	O	0.640032	0.482880	0.420718
	C9859	C	0.492453	0.516865	0.335888
	C9860	C	0.545429	0.510301	0.379279
	N9861	N	0.510240	0.515172	0.356482
	O9862	O	0.565339	0.509789	0.397867
	O9863	O	0.461536	0.522032	0.313154
	C9864	C	0.931574	0.958258	0.360478
	C9865	C	0.901990	0.956406	0.344062
	C9866	C	0.912255	0.930762	0.363598
	C9867	C	0.949460	0.908492	0.397177
	C9868	C	0.979043	0.910401	0.413533
	C9869	C	0.968841	0.936062	0.394039
	H9870	H	0.873123	0.973647	0.318036
	H9871	H	1.007919	0.893126	0.439614
	C9872	C	0.950123	0.884299	0.410425
	C9873	C	0.887944	0.921673	0.354310
	N9874	N	0.912472	0.893654	0.383652
	O9875	O	0.854453	0.934873	0.327842
	O9876	O	0.976529	0.861467	0.437789
	C9877	C	0.930434	0.982536	0.347034
	C9878	C	0.992877	0.945493	0.403097
	N9879	N	0.967948	0.973466	0.373701
	O9880	O	1.026389	0.932658	0.429444
	O9881	O	0.903766	1.005268	0.319604
	C9882	C	0.826435	0.608193	0.374984
	C9883	C	0.829131	0.594552	0.392660
	C9884	C	0.795636	0.607148	0.370015
	C9885	C	0.761522	0.631269	0.332246
	C9886	C	0.758614	0.644599	0.314504
	C9887	C	0.792374	0.632420	0.337236
	H9888	H	0.855668	0.576002	0.421980
	H9889	H	0.732363	0.663568	0.285252
	C9890	C	0.732189	0.639948	0.316748
	C9891	C	0.789379	0.599658	0.380008
	N9892	N	0.751273	0.620714	0.346947
	O9893	O	0.811633	0.580167	0.409721
	O9894	O	0.699197	0.659365	0.285360
	C9895	C	0.857357	0.602333	0.390831
	C9896	C	0.800420	0.643039	0.327704
	N9897	N	0.840256	0.625119	0.361199
	O9898	O	0.778483	0.663164	0.298064
	O9899	O	0.890394	0.582943	0.422143
	C9900	C	0.886241	0.700734	0.367247
	C9901	C	0.876197	0.723447	0.353087
	C9902	C	0.887132	0.718994	0.371953
	C9903	C	0.908253	0.693326	0.403780
	C9904	C	0.917974	0.670740	0.417752
	C9905	C	0.905758	0.675465	0.398099
	H9906	H	0.860116	0.743296	0.328588
	H9907	H	0.932628	0.651127	0.441318
	C9908	C	0.914194	0.695546	0.416499
	C9909	C	0.877180	0.738799	0.362299
	N9910	N	0.891953	0.723382	0.388771
	O9911	O	0.859476	0.762898	0.337086
	O9912	O	0.932495	0.677865	0.443758
	C9913	C	0.877488	0.697906	0.353354
	C9914	C	0.908523	0.656146	0.404025
	N9915	N	0.891485	0.670670	0.376661
	O9916	O	0.920936	0.633045	0.426319
	O9917	O	0.861568	0.714789	0.327698
	C9918	C	0.655487	0.890279	0.374710
	C9919	C	0.645148	0.901615	0.370935
	C9920	C	0.623642	0.897180	0.366019
	C9921	C	0.612947	0.881429	0.365351
	C9922	C	0.624290	0.870011	0.369799
	C9923	C	0.645364	0.874338	0.374330
	H9924	H	0.596508	0.878125	0.361661
	H9925	H	0.653493	0.865646	0.377270
	H9926	H	0.653124	0.913929	0.371218
	C9927	C	0.763279	0.874880	0.392375
	C9928	C	0.774580	0.882417	0.387220
	C9929	C	0.777808	0.871007	0.386835
	C9930	C	0.770401	0.852381	0.391809
	C9931	C	0.758969	0.845484	0.396606
	C9932	C	0.755101	0.856636	0.396780
	H9933	H	0.773067	0.843605	0.391592
	H9934	H	0.745925	0.851205	0.400270
	H9935	H	0.780417	0.896742	0.383456
	C9936	C	0.614761	0.479182	0.371997
	C9937	C	0.602047	0.477858	0.373859
	C9938	C	0.604122	0.491171	0.375200
	C9939	C	0.618001	0.505957	0.374096
	C9940	C	0.630648	0.506862	0.372383
	C9941	C	0.629400	0.493471	0.371517
	H9942	H	0.618733	0.516752	0.374260
	H9943	H	0.639541	0.494219	0.370442
	H9944	H	0.590497	0.466962	0.373869
	C9945	C	0.891645	0.845364	0.393292
	C9946	C	0.904043	0.861075	0.390627
	C9947	C	0.901037	0.876722	0.387407
	C9948	C	0.886444	0.876625	0.387281
	C9949	C	0.874407	0.860707	0.390115
	C9950	C	0.876548	0.845127	0.392864
	H9951	H	0.884504	0.888649	0.385041
	H9952	H	0.866991	0.833011	0.394909
	H9953	H	0.915539	0.861284	0.390835
	C9954	C	0.723983	0.648443	0.338830
	C9955	C	0.712112	0.634194	0.343638
	C9956	C	0.713058	0.615458	0.349224
	C9957	C	0.725271	0.611004	0.349793
	C9958	C	0.737205	0.625393	0.345186
	C9959	C	0.736815	0.644088	0.339797
	H9960	H	0.726483	0.596230	0.354673
	H9961	H	0.746148	0.655060	0.336277
	H9962	H	0.702952	0.637418	0.343491
	C9963	C	0.831553	0.734949	0.365463
	C9964	C	0.841663	0.745877	0.372210
	C9965	C	0.867458	0.750795	0.382725
	C9966	C	0.884106	0.744172	0.387715
	C9967	C	0.873982	0.732746	0.381477
	C9968	C	0.847452	0.728341	0.369935
	H9969	H	0.904276	0.747731	0.396201
	H9970	H	0.839804	0.719574	0.365083
	H9971	H	0.831179	0.749341	0.370973
	C9972	C	0.722330	0.883968	0.402009
	C9973	C	0.755147	0.870155	0.424622
	C9974	C	0.750927	0.880967	0.406790
	C9975	C	0.716840	0.904635	0.369064
	C9976	C	0.684267	0.918663	0.346555
	C9977	C	0.687950	0.907294	0.364217
	H9978	H	0.781701	0.851857	0.453927
	H9979	H	0.657586	0.936515	0.317335
	C9980	C	0.721795	0.909287	0.359247
	C9981	C	0.778197	0.869084	0.422226
	N9982	N	0.757990	0.885975	0.392133
	O9983	O	0.810313	0.848498	0.453692
	O9984	O	0.700032	0.928157	0.329888
	C9985	C	0.715563	0.876489	0.411624
	C9986	C	0.657859	0.915305	0.348303
	N9987	N	0.675993	0.895265	0.378150
	O9988	O	0.624598	0.934317	0.316745
	O9989	O	0.738044	0.858171	0.441215
	C9990	C	0.599608	0.960560	0.349735
	C9991	C	0.590427	0.963883	0.332544
	C9992	C	0.598700	0.941161	0.346105
	C9993	C	0.614914	0.916725	0.374830
	C9994	C	0.623794	0.913573	0.391804
	C9995	C	0.615953	0.936253	0.378552
	H9996	H	0.578645	0.982641	0.310855
	H9997	H	0.636574	0.894641	0.414199
	C9998	C	0.621728	0.896472	0.383357
	C9999	C	0.594724	0.937506	0.335418
	N10000	N	0.611744	0.909941	0.360543
	O10001	O	0.580755	0.954061	0.310995
	O10002	O	0.632762	0.873628	0.404394
	C10003	C	0.595488	0.980601	0.342468
	C10004	C	0.623331	0.939955	0.391103
	N10005	N	0.611174	0.966858	0.368740
	O10006	O	0.636509	0.923931	0.414892
	O10007	O	0.581762	1.003926	0.319147
	C10008	C	0.818211	0.872700	0.370355
	C10009	C	0.786515	0.882690	0.350797
	C10010	C	0.793486	0.879616	0.366645
	C10011	C	0.829715	0.867151	0.399944
	C10012	C	0.861401	0.857204	0.419490
	C10013	C	0.854345	0.860477	0.403494
	H10014	H	0.758515	0.891991	0.325239
	H10015	H	0.889537	0.847509	0.445342
	C10016	C	0.827348	0.866069	0.409738
	C10017	C	0.766587	0.887220	0.353801
	N10018	N	0.789039	0.877597	0.381569
	O10019	O	0.732720	0.898952	0.325886
	O10020	O	0.852282	0.857504	0.435847
	C10021	C	0.821232	0.872707	0.361533
	C10022	C	0.881591	0.852537	0.416828
	N10023	N	0.859843	0.860698	0.390274
	O10024	O	0.915149	0.841818	0.444077
	O10025	O	0.796698	0.880913	0.335786
	C10026	C	0.681806	0.536240	0.383573
	C10027	C	0.711884	0.537214	0.399931
	C10028	C	0.701939	0.563027	0.378485
	C10029	C	0.664607	0.586306	0.343269
	C10030	C	0.634555	0.585319	0.326962
	C10031	C	0.644408	0.559525	0.348227
	H10032	H	0.740892	0.519198	0.427272
	H10033	H	0.605576	0.603328	0.299644
	C10034	C	0.664195	0.610342	0.328086
	C10035	C	0.726593	0.571318	0.386841
	N10036	N	0.701988	0.599857	0.355133
	O10037	O	0.760342	0.557153	0.414308
	O10038	O	0.637834	0.633919	0.299144
	C10039	C	0.682037	0.512199	0.398289
	C10040	C	0.619393	0.551242	0.339000
	N10041	N	0.643704	0.522751	0.370065
	O10042	O	0.585432	0.565350	0.311123
	O10043	O	0.708629	0.488628	0.427654
	C10044	C	0.898982	0.795729	0.409727
	C10045	C	0.904620	0.772238	0.423754
	C10046	C	0.892830	0.772729	0.406940
	C10047	C	0.876554	0.795175	0.378089
	C10048	C	0.871350	0.818498	0.364400
	C10049	C	0.883028	0.818035	0.381121
	H10050	H	0.916767	0.754974	0.445794
	H10051	H	0.858686	0.836001	0.342032
	C10052	C	0.865949	0.789281	0.365687
	C10053	C	0.893603	0.751537	0.414282
	N10054	N	0.876796	0.762920	0.388396
	O10055	O	0.905831	0.729196	0.437207
	O10056	O	0.851254	0.803391	0.341569
	C10057	C	0.906465	0.802689	0.419857
	C10058	C	0.879576	0.840053	0.371823
	N10059	N	0.893797	0.829601	0.395840
	O10060	O	0.867519	0.862274	0.348938
	O10061	O	0.920183	0.788769	0.443333
	C10062	C	0.760596	0.722471	0.327761
	C10063	C	0.731237	0.723340	0.305080
	C10064	C	0.731999	0.701192	0.320216
	C10065	C	0.759456	0.680107	0.355117
	C10066	C	0.787792	0.679834	0.377146
	C10067	C	0.787979	0.701438	0.362640
	H10068	H	0.710233	0.739491	0.278175
	H10069	H	0.808769	0.663417	0.404082
	C10070	C	0.754658	0.658337	0.364336
	C10071	C	0.708275	0.693809	0.305670
	N10072	N	0.725229	0.667152	0.334471
	O10073	O	0.681080	0.707018	0.276143
	O10074	O	0.772393	0.637103	0.391613
	C10075	C	0.770847	0.741068	0.321924
	C10076	C	0.816797	0.705814	0.380370
	N10077	N	0.805548	0.729263	0.354974
	O10078	O	0.844571	0.692625	0.410053
	O10079	O	0.754066	0.761777	0.295226
	C10080	C	0.528315	0.634205	0.510208
	C10081	C	0.527937	0.620145	0.510376
	C10082	C	0.514863	0.604965	0.512515
	C10083	C	0.503056	0.603301	0.515236
	C10084	C	0.504160	0.617328	0.515461
	C10085	C	0.516439	0.633054	0.512635
	H10086	H	0.492816	0.591630	0.516711
	H10087	H	0.516408	0.644341	0.511987
	H10088	H	0.537342	0.621165	0.508617
	C10089	C	0.540662	0.687599	0.485821
	C10090	C	0.531540	0.712980	0.466895
	C10091	C	0.561599	0.714111	0.483444
	C10092	C	0.598050	0.691654	0.516206
	C10093	C	0.606932	0.666372	0.534726
	C10094	C	0.577098	0.665048	0.518628
	H10095	H	0.503371	0.730475	0.441530
	H10096	H	0.635134	0.648925	0.560093
	C10097	C	0.623386	0.700010	0.526724
	C10098	C	0.562313	0.737457	0.472005
	N10099	N	0.600458	0.727335	0.499880
	O10100	O	0.536476	0.760205	0.445318
	O10101	O	0.656443	0.686795	0.552452
	C10102	C	0.516097	0.678945	0.477063
	C10103	C	0.577056	0.641102	0.531981
	N10104	N	0.540007	0.650806	0.506354
	O10105	O	0.602545	0.618128	0.558712
	O10106	O	0.482946	0.692456	0.451070
	C10107	C	0.497283	0.584653	0.490351
	C10108	C	0.484741	0.587417	0.471705
	C10109	C	0.487313	0.565596	0.482250
	C10110	C	0.502027	0.542433	0.510007
	C10111	C	0.513930	0.539884	0.528196
	C10112	C	0.511098	0.561785	0.517481
	H10113	H	0.474076	0.605257	0.450745
	H10114	H	0.524400	0.522095	0.549011
	C10115	C	0.503052	0.522382	0.516024
	C10116	C	0.476711	0.561656	0.468350
	N10117	N	0.487494	0.535174	0.490180
	O10118	O	0.462091	0.577269	0.443788
	O10119	O	0.515073	0.499644	0.538433
	C10120	C	0.498164	0.604178	0.485600
	C10121	C	0.521082	0.566023	0.530885
	N10122	N	0.511989	0.591983	0.510198
	O10123	O	0.533934	0.551058	0.554186
	O10124	O	0.488869	0.626111	0.465059
	C10125	C	0.982359	0.619610	0.526447
	C10126	C	0.986083	0.620669	0.537956
	C10127	C	0.955331	0.626847	0.520837
	C10128	C	0.923405	0.631203	0.494522
	C10129	C	0.919570	0.630284	0.482864
	C10130	C	0.950011	0.624570	0.499508
	H10131	H	1.010930	0.617170	0.558508
	H10132	H	0.894560	0.633952	0.462163
	C10133	C	0.896299	0.637021	0.482286
	C10134	C	0.949306	0.630364	0.525682
	N10135	N	0.913016	0.636966	0.501244
	O10136	O	0.970448	0.628382	0.545843
	O10137	O	0.866336	0.640711	0.460980
	C10138	C	1.009268	0.614129	0.538363
	C10139	C	0.954722	0.623066	0.492654
	N10140	N	0.990865	0.616679	0.516894
	O10141	O	0.932940	0.626303	0.471302
	O10142	O	1.040438	0.608567	0.561442
	C10143	C	0.618851	0.766470	0.504192
	C10144	C	0.605302	0.752574	0.500729
	C10145	C	0.614916	0.741360	0.503890
	C10146	C	0.638213	0.743450	0.511041
	C10147	C	0.651814	0.757110	0.514981
	C10148	C	0.642110	0.768894	0.511314
	H10149	H	0.645492	0.734756	0.513449
	H10150	H	0.652558	0.779585	0.514146
	H10151	H	0.587166	0.751095	0.495009
	C10152	C	0.478224	0.491135	0.494234
	C10153	C	0.476821	0.504799	0.493613
	C10154	C	0.487190	0.521815	0.489364
	C10155	C	0.498215	0.525540	0.485209
	C10156	C	0.498769	0.511938	0.485370
	C10157	C	0.489331	0.494378	0.490368
	H10158	H	0.506321	0.538624	0.482026
	H10159	H	0.490390	0.483557	0.491060
	H10160	H	0.467806	0.502224	0.496308
	C10161	C	0.884909	0.658984	0.496555
	C10162	C	0.900404	0.655628	0.498984
	C10163	C	0.896242	0.641391	0.497645
	C10164	C	0.876874	0.630701	0.493894
	C10165	C	0.860678	0.635213	0.490323
	C10166	C	0.864437	0.649317	0.491562
	H10167	H	0.874185	0.619239	0.493588
	H10168	H	0.852502	0.652112	0.489617
	H10169	H	0.915584	0.663696	0.502207
	C10170	C	0.622559	0.791161	0.515674
	C10171	C	0.640672	0.791696	0.534540
	C10172	C	0.624384	0.817261	0.513528
	C10173	C	0.591526	0.840557	0.476067
	C10174	C	0.572950	0.839982	0.457063
	C10175	C	0.589993	0.814518	0.478292
	H10176	H	0.666271	0.773645	0.563623
	H10177	H	0.547830	0.858101	0.428107
	C10178	C	0.583371	0.864444	0.462595
	C10179	C	0.638699	0.825486	0.525410
	N10180	N	0.613709	0.854013	0.493787
	O10181	O	0.666185	0.811336	0.555495
	O10182	O	0.557207	0.887957	0.431928
	C10183	C	0.634426	0.767818	0.530073
	C10184	C	0.580286	0.807037	0.467583
	N10185	N	0.609071	0.779049	0.500161
	O10186	O	0.554278	0.821461	0.437869
	O10187	O	0.660346	0.744261	0.560628
	C10188	C	0.688804	0.788534	0.508245
	C10189	C	0.685769	0.810133	0.489985
	C10190	C	0.714070	0.812209	0.508967
	C10191	C	0.743691	0.793754	0.543969
	C10192	C	0.747371	0.771716	0.562645
	C10193	C	0.718807	0.769861	0.543460
	H10194	H	0.662731	0.824620	0.462749
	H10195	H	0.770065	0.757503	0.589633
	C10196	C	0.767300	0.803047	0.555078
	C10197	C	0.717896	0.833847	0.496619
	N10198	N	0.749774	0.827327	0.525245
	O10199	O	0.698303	0.853465	0.468309
	O10200	O	0.795283	0.792724	0.583164
	C10201	C	0.661529	0.781893	0.494801
	C10202	C	0.712317	0.750300	0.554058
	N10203	N	0.676187	0.759948	0.522751
	O10204	O	0.732766	0.730571	0.582860
	O10205	O	0.632651	0.792672	0.466267
	C10206	C	0.519771	0.510819	0.473447
	C10207	C	0.516919	0.508306	0.463376
	C10208	C	0.548336	0.501123	0.481574
	C10209	C	0.580305	0.496752	0.507945
	C10210	C	0.583017	0.499480	0.517802
	C10211	C	0.551587	0.506684	0.499591
	H10212	H	0.492352	0.511373	0.443251
	H10213	H	0.607868	0.495948	0.538379
	C10214	C	0.608479	0.489116	0.521965
	C10215	C	0.554814	0.496740	0.477564
	N10216	N	0.590862	0.490485	0.501664
	O10217	O	0.534259	0.497942	0.458212
	O10218	O	0.640055	0.482856	0.545745
	C10219	C	0.492467	0.516856	0.460902
	C10220	C	0.545440	0.510297	0.504288
	N10221	N	0.510252	0.515167	0.481491
	O10222	O	0.565347	0.509790	0.522871
	O10223	O	0.461551	0.522021	0.438169
	C10224	C	0.931585	0.958255	0.485486
	C10225	C	0.902001	0.956403	0.469068
	C10226	C	0.912267	0.930759	0.488604
	C10227	C	0.949472	0.908489	0.522185
	C10228	C	0.979056	0.910398	0.538542
	C10229	C	0.968854	0.936058	0.519048
	H10230	H	0.873133	0.973644	0.443040
	H10231	H	1.007932	0.893123	0.564624
	C10232	C	0.950135	0.884296	0.535433
	C10233	C	0.887956	0.921669	0.479316
	N10234	N	0.912482	0.893651	0.508655
	O10235	O	0.854460	0.934873	0.452837
	O10236	O	0.976542	0.861463	0.562798
	C10237	C	0.930444	0.982533	0.472042
	C10238	C	0.992889	0.945490	0.528107
	N10239	N	0.967959	0.973463	0.498710
	O10240	O	1.026402	0.932655	0.554455
	O10241	O	0.903776	1.005265	0.444610
	C10242	C	0.826510	0.608141	0.500063
	C10243	C	0.829209	0.594503	0.517740
	C10244	C	0.795712	0.607095	0.495095
	C10245	C	0.761594	0.631209	0.457324
	C10246	C	0.758683	0.644537	0.439581
	C10247	C	0.792445	0.632362	0.462314
	H10248	H	0.855749	0.575958	0.547060
	H10249	H	0.732428	0.663501	0.410329
	C10250	C	0.732258	0.639886	0.441824
	C10251	C	0.789454	0.599606	0.505087
	N10252	N	0.751345	0.620659	0.472024
	O10253	O	0.811718	0.580129	0.534802
	O10254	O	0.699261	0.659296	0.410436
	C10255	C	0.857431	0.602286	0.515907
	C10256	C	0.800488	0.642983	0.452779
	N10257	N	0.840325	0.625070	0.486271
	O10258	O	0.778547	0.663105	0.423137
	O10259	O	0.890471	0.582900	0.547220
	C10260	C	0.886298	0.700692	0.492312
	C10261	C	0.876257	0.723404	0.478154
	C10262	C	0.887186	0.718951	0.497017
	C10263	C	0.908298	0.693284	0.528839
	C10264	C	0.918017	0.670698	0.542808
	C10265	C	0.905808	0.675424	0.523159
	H10266	H	0.860182	0.743253	0.453658
	H10267	H	0.932664	0.651086	0.566369
	C10268	C	0.914233	0.695504	0.541553
	C10269	C	0.877234	0.738756	0.487363
	N10270	N	0.891997	0.723340	0.513828
	O10271	O	0.859537	0.762854	0.462154
	O10272	O	0.932524	0.677823	0.568807
	C10273	C	0.877548	0.697865	0.478419
	C10274	C	0.908571	0.656107	0.529082
	N10275	N	0.891538	0.670631	0.501721
	O10276	O	0.920979	0.633006	0.551372
	O10277	O	0.861635	0.714747	0.452768
	C10278	C	0.655462	0.890295	0.499680
	C10279	C	0.645136	0.901622	0.495919
	C10280	C	0.623624	0.897190	0.490997
	C10281	C	0.612911	0.881452	0.490308
	C10282	C	0.624241	0.870044	0.494741
	C10283	C	0.645321	0.874367	0.499279
	H10284	H	0.596466	0.878152	0.486612
	H10285	H	0.653442	0.865681	0.502209
	H10286	H	0.653127	0.913926	0.496219
	C10287	C	0.763270	0.874895	0.517358
	C10288	C	0.774579	0.882430	0.512210
	C10289	C	0.777808	0.871024	0.511821
	C10290	C	0.770394	0.852402	0.516787
	C10291	C	0.758952	0.845508	0.521576
	C10292	C	0.755083	0.856656	0.521751
	H10293	H	0.773060	0.843629	0.516568
	H10294	H	0.745901	0.851227	0.525234
	H10295	H	0.780421	0.896753	0.508452
	C10296	C	0.614776	0.479163	0.497017
	C10297	C	0.602064	0.477837	0.498881
	C10298	C	0.604144	0.491147	0.500227
	C10299	C	0.618026	0.505931	0.499126
	C10300	C	0.630671	0.506837	0.497412
	C10301	C	0.629417	0.493451	0.496540
	H10302	H	0.618762	0.516724	0.499294
	H10303	H	0.639557	0.494199	0.495463
	H10304	H	0.590514	0.466942	0.498890
	C10305	C	0.891657	0.845359	0.518300
	C10306	C	0.904055	0.861070	0.515635
	C10307	C	0.901047	0.876720	0.512412
	C10308	C	0.886454	0.876625	0.512283
	C10309	C	0.874417	0.860706	0.515119
	C10310	C	0.876559	0.845124	0.517870
	H10311	H	0.884511	0.888651	0.510040
	H10312	H	0.867003	0.833008	0.519917
	H10313	H	0.915552	0.861277	0.515844
	C10314	C	0.724031	0.648403	0.463881
	C10315	C	0.712162	0.634153	0.468691
	C10316	C	0.713115	0.615414	0.474285
	C10317	C	0.725336	0.610955	0.474862
	C10318	C	0.737270	0.625343	0.470255
	C10319	C	0.736870	0.644043	0.464856
	H10320	H	0.726553	0.596177	0.479748
	H10321	H	0.746202	0.655017	0.461334
	H10322	H	0.702995	0.637383	0.468537
	C10323	C	0.831578	0.734922	0.490498
	C10324	C	0.841685	0.745852	0.497241
	C10325	C	0.867484	0.750768	0.507761
	C10326	C	0.884139	0.744138	0.512760
	C10327	C	0.874020	0.732708	0.506527
	C10328	C	0.847486	0.728307	0.494980
	H10329	H	0.904312	0.747695	0.521250
	H10330	H	0.839840	0.719538	0.490130
	H10331	H	0.831196	0.749320	0.495998
	C10332	C	0.722315	0.883977	0.526990
	C10333	C	0.755131	0.870161	0.549605
	C10334	C	0.750915	0.880974	0.531775
	C10335	C	0.716832	0.904647	0.494048
	C10336	C	0.684259	0.918678	0.471539
	C10337	C	0.687939	0.907308	0.489198
	H10338	H	0.781682	0.851859	0.578909
	H10339	H	0.657581	0.936534	0.442318
	C10340	C	0.721788	0.909299	0.484232
	C10341	C	0.778184	0.869089	0.547210
	N10342	N	0.757982	0.885986	0.517119
	O10343	O	0.810303	0.848508	0.578677
	O10344	O	0.700027	0.928170	0.454874
	C10345	C	0.715544	0.876497	0.536603
	C10346	C	0.657847	0.915322	0.473282
	N10347	N	0.675976	0.895279	0.503127
	O10348	O	0.624587	0.934338	0.441724
	O10349	O	0.738022	0.858175	0.566193
	C10350	C	0.599614	0.960550	0.474744
	C10351	C	0.590428	0.963878	0.457547
	C10352	C	0.598701	0.941158	0.471105
	C10353	C	0.614923	0.916718	0.499836
	C10354	C	0.623808	0.913562	0.516815
	C10355	C	0.615964	0.936241	0.503564
	H10356	H	0.578641	0.982639	0.435855
	H10357	H	0.636593	0.894627	0.539213
	C10358	C	0.621737	0.896468	0.508360
	C10359	C	0.594722	0.937508	0.460413
	N10360	N	0.611737	0.909943	0.485534
	O10361	O	0.580729	0.954069	0.435974
	O10362	O	0.632782	0.873621	0.529404
	C10363	C	0.595495	0.980589	0.467479
	C10364	C	0.623345	0.939939	0.516119
	N10365	N	0.611184	0.966843	0.493755
	O10366	O	0.636525	0.923912	0.539910
	O10367	O	0.581766	1.003915	0.444157
	C10368	C	0.818218	0.872711	0.495351
	C10369	C	0.786521	0.882705	0.475789
	C10370	C	0.793491	0.879633	0.491637
	C10371	C	0.829721	0.867163	0.524939
	C10372	C	0.861409	0.857211	0.544488
	C10373	C	0.854353	0.860484	0.528492
	H10374	H	0.758521	0.892008	0.450230
	H10375	H	0.889546	0.847513	0.570342
	C10376	C	0.827353	0.866082	0.534732
	C10377	C	0.766591	0.887241	0.478789
	N10378	N	0.789042	0.877615	0.506559
	O10379	O	0.732722	0.898978	0.450870
	O10380	O	0.852288	0.857515	0.560842
	C10381	C	0.821240	0.872715	0.486531
	C10382	C	0.881600	0.852540	0.541830
	N10383	N	0.859852	0.860701	0.515276
	O10384	O	0.915158	0.841818	0.569080
	O10385	O	0.796706	0.880921	0.460783
	C10386	C	0.681842	0.536206	0.508614
	C10387	C	0.711923	0.537176	0.524975
	C10388	C	0.701984	0.562987	0.503535
	C10389	C	0.664656	0.586268	0.468323
	C10390	C	0.634600	0.585285	0.452013
	C10391	C	0.644448	0.559493	0.473272
	H10392	H	0.740929	0.519158	0.552313
	H10393	H	0.605624	0.603296	0.424697
	C10394	C	0.664250	0.610302	0.453146
	C10395	C	0.726642	0.571274	0.511895
	N10396	N	0.702042	0.599814	0.480192
	O10397	O	0.760390	0.557107	0.539361
	O10398	O	0.637894	0.633879	0.424209
	C10399	C	0.682066	0.512168	0.523324
	C10400	C	0.619428	0.551214	0.464040
	N10401	N	0.643733	0.522723	0.495100
	O10402	O	0.585467	0.565325	0.436163
	O10403	O	0.708654	0.488596	0.552684
	C10404	C	0.898998	0.795717	0.534745
	C10405	C	0.904641	0.772223	0.548777
	C10406	C	0.892849	0.772712	0.531965
	C10407	C	0.876568	0.795157	0.503110
	C10408	C	0.871358	0.818483	0.489415
	C10409	C	0.883039	0.818022	0.506135
	H10410	H	0.916793	0.754960	0.570821
	H10411	H	0.858689	0.835985	0.467043
	C10412	C	0.865963	0.789259	0.490710
	C10413	C	0.893626	0.751516	0.539312
	N10414	N	0.876817	0.762897	0.513425
	O10415	O	0.905859	0.729174	0.562240
	O10416	O	0.851262	0.803369	0.466589
	C10417	C	0.906484	0.802680	0.544874
	C10418	C	0.879584	0.840043	0.496833
	N10419	N	0.893811	0.829593	0.520853
	O10420	O	0.867522	0.862264	0.473944
	O10421	O	0.920205	0.788761	0.568351
	C10422	C	0.760620	0.722446	0.452791
	C10423	C	0.731269	0.723310	0.430114
	C10424	C	0.732030	0.701162	0.445250
	C10425	C	0.759478	0.680083	0.480145
	C10426	C	0.787803	0.679816	0.502168
	C10427	C	0.787994	0.701419	0.487664
	H10428	H	0.710273	0.739457	0.403214
	H10429	H	0.808772	0.663404	0.529099
	C10430	C	0.754683	0.658312	0.489367
	C10431	C	0.708317	0.693773	0.430712
	N10432	N	0.725267	0.667119	0.459512
	O10433	O	0.681133	0.706975	0.401192
	O10434	O	0.772412	0.637082	0.516641
	C10435	C	0.770873	0.741042	0.446956
	C10436	C	0.816808	0.705797	0.505393
	N10437	N	0.805568	0.729240	0.480002
	O10438	O	0.844573	0.692613	0.535070
	O10439	O	0.754098	0.761748	0.420262
	C10440	C	0.528367	0.634160	0.635272
	C10441	C	0.527987	0.620102	0.635438
	C10442	C	0.514907	0.604926	0.637569
	C10443	C	0.503098	0.603262	0.640289
	C10444	C	0.504202	0.617286	0.640516
	C10445	C	0.516486	0.633010	0.637694
	H10446	H	0.492854	0.591593	0.641759
	H10447	H	0.516455	0.644296	0.637048
	H10448	H	0.537394	0.621122	0.633680
	C10449	C	0.540736	0.687544	0.610912
	C10450	C	0.531625	0.712920	0.591999
	C10451	C	0.561689	0.714046	0.608554
	C10452	C	0.598135	0.691588	0.641310
	C10453	C	0.607006	0.666310	0.659817
	C10454	C	0.577167	0.664992	0.643713
	H10455	H	0.503461	0.730415	0.566640
	H10456	H	0.635203	0.648863	0.685179
	C10457	C	0.623479	0.699937	0.651837
	C10458	C	0.562415	0.737384	0.597130
	N10459	N	0.600562	0.727258	0.625008
	O10460	O	0.536586	0.760131	0.570453
	O10461	O	0.656533	0.686721	0.677563
	C10462	C	0.516164	0.678894	0.602145
	C10463	C	0.577115	0.641050	0.657054
	N10464	N	0.540065	0.650757	0.631425
	O10465	O	0.602597	0.618078	0.683778
	O10466	O	0.483015	0.692408	0.576153
	C10467	C	0.497320	0.584626	0.615392
	C10468	C	0.484778	0.587394	0.596744
	C10469	C	0.487340	0.565578	0.607279
	C10470	C	0.502046	0.542414	0.635031
	C10471	C	0.513951	0.539861	0.653223
	C10472	C	0.511128	0.561758	0.642517
	H10473	H	0.474120	0.605234	0.575789
	H10474	H	0.524414	0.522073	0.674033
	C10475	C	0.503061	0.522369	0.641038
	C10476	C	0.476738	0.561642	0.593376
	N10477	N	0.487502	0.535165	0.615191
	O10478	O	0.462104	0.577261	0.568804
	O10479	O	0.515075	0.499632	0.663441
	C10480	C	0.498206	0.604147	0.610648
	C10481	C	0.521115	0.565991	0.655926
	N10482	N	0.512029	0.591948	0.635246
	O10483	O	0.533964	0.551025	0.679226
	O10484	O	0.488915	0.626079	0.590111
	C10485	C	0.982372	0.619593	0.651469
	C10486	C	0.986077	0.620671	0.662955
	C10487	C	0.955322	0.626851	0.645832
	C10488	C	0.923410	0.631188	0.619535
	C10489	C	0.919593	0.630250	0.607899
	C10490	C	0.950037	0.624536	0.624546
	H10491	H	1.010914	0.617187	0.683493
	H10492	H	0.894594	0.633904	0.587211
	C10493	C	0.896297	0.637009	0.607290
	C10494	C	0.949276	0.630388	0.650651
	N10495	N	0.912994	0.636974	0.626225
	O10496	O	0.970411	0.628411	0.670806
	O10497	O	0.866342	0.640687	0.585996
	C10498	C	1.009290	0.614107	0.663394
	C10499	C	0.954763	0.623018	0.617709
	N10500	N	0.990902	0.616640	0.641944
	O10501	O	0.932993	0.626241	0.596372
	O10502	O	1.040454	0.608553	0.686467
	C10503	C	0.618979	0.766376	0.629347
	C10504	C	0.605424	0.752483	0.625878
	C10505	C	0.615031	0.741274	0.629030
	C10506	C	0.638327	0.743366	0.636180
	C10507	C	0.651934	0.757021	0.640127
	C10508	C	0.642237	0.768800	0.636468
	H10509	H	0.645597	0.734677	0.638579
	H10510	H	0.652688	0.779489	0.639304
	H10511	H	0.587288	0.751005	0.620159
	C10512	C	0.478215	0.491136	0.619227
	C10513	C	0.476817	0.504797	0.618613
	C10514	C	0.487190	0.521811	0.614368
	C10515	C	0.498211	0.525538	0.610209
	C10516	C	0.498759	0.511940	0.610363
	C10517	C	0.489317	0.494382	0.615357
	H10518	H	0.506319	0.538621	0.607027
	H10519	H	0.490373	0.483564	0.616046
	H10520	H	0.467805	0.502220	0.621310
	C10521	C	0.884857	0.659021	0.621498
	C10522	C	0.900364	0.655655	0.623942
	C10523	C	0.896205	0.641412	0.622608
	C10524	C	0.876827	0.630730	0.618847
	C10525	C	0.860618	0.635255	0.615260
	C10526	C	0.864376	0.649362	0.616495
	H10527	H	0.874140	0.619265	0.618545
	H10528	H	0.852432	0.652166	0.614538
	H10529	H	0.915552	0.663717	0.627172
	C10530	C	0.622673	0.791085	0.640808
	C10531	C	0.640781	0.791632	0.659663
	C10532	C	0.624478	0.817201	0.638637
	C10533	C	0.591611	0.840489	0.601174
	C10534	C	0.573040	0.839902	0.582182
	C10535	C	0.590098	0.814434	0.603425
	H10536	H	0.666386	0.773586	0.688746
	H10537	H	0.547913	0.858015	0.553224
	C10538	C	0.583439	0.864385	0.587684
	C10539	C	0.638782	0.825440	0.650503
	N10540	N	0.613777	0.853966	0.618868
	O10541	O	0.666272	0.811299	0.680584
	O10542	O	0.557263	0.887894	0.557011
	C10543	C	0.634554	0.767735	0.655221
	C10544	C	0.580398	0.806942	0.592727
	N10545	N	0.609197	0.778956	0.625314
	O10546	O	0.554385	0.821358	0.563016
	O10547	O	0.660484	0.744181	0.685782
	C10548	C	0.688884	0.788465	0.633349
	C10549	C	0.685829	0.810071	0.615073
	C10550	C	0.714119	0.812159	0.634040
	C10551	C	0.743749	0.793710	0.669043
	C10552	C	0.747449	0.771666	0.687734
	C10553	C	0.718894	0.769799	0.668565
	H10554	H	0.662784	0.824553	0.587836
	H10555	H	0.770149	0.757457	0.714724
	C10556	C	0.767345	0.803016	0.680134
	C10557	C	0.717923	0.833808	0.621670
	N10558	N	0.749802	0.827297	0.650289
	O10559	O	0.698314	0.853426	0.593351
	O10560	O	0.795331	0.792700	0.708216
	C10561	C	0.661624	0.781811	0.619925
	C10562	C	0.712423	0.750230	0.679182
	N10563	N	0.676296	0.759865	0.647885
	O10564	O	0.732883	0.730502	0.707989
	O10565	O	0.632747	0.792579	0.591398
	C10566	C	0.519754	0.510833	0.598428
	C10567	C	0.516897	0.508327	0.588351
	C10568	C	0.548313	0.501147	0.606545
	C10569	C	0.580283	0.496772	0.632920
	C10570	C	0.583000	0.499494	0.642784
	C10571	C	0.551571	0.506695	0.624576
	H10572	H	0.492329	0.511397	0.568222
	H10573	H	0.607852	0.495960	0.663363
	C10574	C	0.608456	0.489139	0.646937
	C10575	C	0.554785	0.496773	0.602527
	N10576	N	0.590839	0.490510	0.626634
	O10577	O	0.534236	0.497967	0.583183
	O10578	O	0.640032	0.482880	0.670718
	C10579	C	0.492453	0.516865	0.585888
	C10580	C	0.545429	0.510301	0.629279
	N10581	N	0.510240	0.515172	0.606482
	O10582	O	0.565339	0.509789	0.647867
	O10583	O	0.461536	0.522032	0.563154
	C10584	C	0.931574	0.958258	0.610478
	C10585	C	0.901990	0.956406	0.594062
	C10586	C	0.912255	0.930762	0.613598
	C10587	C	0.949460	0.908492	0.647177
	C10588	C	0.979043	0.910401	0.663533
	C10589	C	0.968841	0.936062	0.644039
	H10590	H	0.873123	0.973647	0.568036
	H10591	H	1.007919	0.893126	0.689614
	C10592	C	0.950123	0.884299	0.660425
	C10593	C	0.887944	0.921673	0.604310
	N10594	N	0.912472	0.893654	0.633652
	O10595	O	0.854453	0.934873	0.577842
	O10596	O	0.976529	0.861467	0.687789
	C10597	C	0.930434	0.982536	0.597034
	C10598	C	0.992877	0.945493	0.653097
	N10599	N	0.967948	0.973466	0.623701
	O10600	O	1.026389	0.932658	0.679444
	O10601	O	0.903766	1.005268	0.569604
	C10602	C	0.826435	0.608193	0.624984
	C10603	C	0.829131	0.594552	0.642660
	C10604	C	0.795636	0.607148	0.620015
	C10605	C	0.761522	0.631269	0.582246
	C10606	C	0.758614	0.644599	0.564504
	C10607	C	0.792374	0.632420	0.587236
	H10608	H	0.855668	0.576002	0.671980
	H10609	H	0.732363	0.663568	0.535252
	C10610	C	0.732189	0.639948	0.566748
	C10611	C	0.789379	0.599658	0.630008
	N10612	N	0.751273	0.620714	0.596947
	O10613	O	0.811633	0.580167	0.659721
	O10614	O	0.699197	0.659365	0.535360
	C10615	C	0.857357	0.602333	0.640831
	C10616	C	0.800420	0.643039	0.577704
	N10617	N	0.840256	0.625119	0.611199
	O10618	O	0.778483	0.663164	0.548064
	O10619	O	0.890394	0.582943	0.672143
	C10620	C	0.886241	0.700734	0.617247
	C10621	C	0.876197	0.723447	0.603087
	C10622	C	0.887132	0.718994	0.621953
	C10623	C	0.908253	0.693326	0.653780
	C10624	C	0.917974	0.670740	0.667752
	C10625	C	0.905758	0.675465	0.648099
	H10626	H	0.860116	0.743296	0.578588
	H10627	H	0.932628	0.651127	0.691318
	C10628	C	0.914194	0.695546	0.666499
	C10629	C	0.877180	0.738799	0.612299
	N10630	N	0.891953	0.723382	0.638771
	O10631	O	0.859476	0.762898	0.587086
	O10632	O	0.932495	0.677865	0.693758
	C10633	C	0.877488	0.697906	0.603354
	C10634	C	0.908523	0.656146	0.654025
	N10635	N	0.891485	0.670670	0.626661
	O10636	O	0.920936	0.633045	0.676319
	O10637	O	0.861568	0.714789	0.577698
	C10638	C	0.655487	0.890279	0.624710
	C10639	C	0.645148	0.901615	0.620935
	C10640	C	0.623642	0.897180	0.616019
	C10641	C	0.612947	0.881429	0.615351
	C10642	C	0.624290	0.870011	0.619799
	C10643	C	0.645364	0.874338	0.624330
	H10644	H	0.596508	0.878125	0.611661
	H10645	H	0.653493	0.865646	0.627270
	H10646	H	0.653124	0.913929	0.621218
	C10647	C	0.763279	0.874880	0.642375
	C10648	C	0.774580	0.882417	0.637220
	C10649	C	0.777808	0.871007	0.636835
	C10650	C	0.770401	0.852381	0.641809
	C10651	C	0.758969	0.845484	0.646606
	C10652	C	0.755101	0.856636	0.646780
	H10653	H	0.773067	0.843605	0.641592
	H10654	H	0.745925	0.851205	0.650270
	H10655	H	0.780417	0.896742	0.633456
	C10656	C	0.614761	0.479182	0.621997
	C10657	C	0.602047	0.477858	0.623859
	C10658	C	0.604122	0.491171	0.625200
	C10659	C	0.618001	0.505957	0.624096
	C10660	C	0.630648	0.506862	0.622383
	C10661	C	0.629400	0.493471	0.621517
	H10662	H	0.618733	0.516752	0.624260
	H10663	H	0.639541	0.494219	0.620442
	H10664	H	0.590497	0.466962	0.623869
	C10665	C	0.891645	0.845364	0.643292
	C10666	C	0.904043	0.861075	0.640627
	C10667	C	0.901037	0.876722	0.637407
	C10668	C	0.886444	0.876625	0.637281
	C10669	C	0.874407	0.860707	0.640115
	C10670	C	0.876548	0.845127	0.642864
	H10671	H	0.884504	0.888649	0.635041
	H10672	H	0.866991	0.833011	0.644909
	H10673	H	0.915539	0.861284	0.640835
	C10674	C	0.723983	0.648443	0.588830
	C10675	C	0.712112	0.634194	0.593638
	C10676	C	0.713058	0.615458	0.599224
	C10677	C	0.725271	0.611004	0.599793
	C10678	C	0.737205	0.625393	0.595186
	C10679	C	0.736815	0.644088	0.589797
	H10680	H	0.726483	0.596230	0.604673
	H10681	H	0.746148	0.655060	0.586277
	H10682	H	0.702952	0.637418	0.593491
	C10683	C	0.831553	0.734949	0.615463
	C10684	C	0.841663	0.745877	0.622210
	C10685	C	0.867458	0.750795	0.632725
	C10686	C	0.884106	0.744172	0.637715
	C10687	C	0.873982	0.732746	0.631477
	C10688	C	0.847452	0.728341	0.619935
	H10689	H	0.904276	0.747731	0.646201
	H10690	H	0.839804	0.719574	0.615083
	H10691	H	0.831179	0.749341	0.620973
	C10692	C	0.722330	0.883968	0.652009
	C10693	C	0.755147	0.870155	0.674622
	C10694	C	0.750927	0.880967	0.656790
	C10695	C	0.716840	0.904635	0.619064
	C10696	C	0.684267	0.918663	0.596555
	C10697	C	0.687950	0.907294	0.614217
	H10698	H	0.781701	0.851857	0.703927
	H10699	H	0.657586	0.936515	0.567335
	C10700	C	0.721795	0.909287	0.609247
	C10701	C	0.778197	0.869084	0.672226
	N10702	N	0.757990	0.885975	0.642133
	O10703	O	0.810313	0.848498	0.703692
	O10704	O	0.700032	0.928157	0.579888
	C10705	C	0.715563	0.876489	0.661624
	C10706	C	0.657859	0.915305	0.598303
	N10707	N	0.675993	0.895265	0.628150
	O10708	O	0.624598	0.934317	0.566745
	O10709	O	0.738044	0.858171	0.691215
	C10710	C	0.599608	0.960560	0.599735
	C10711	C	0.590427	0.963883	0.582544
	C10712	C	0.598700	0.941161	0.596105
	C10713	C	0.614914	0.916725	0.624830
	C10714	C	0.623794	0.913573	0.641804
	C10715	C	0.615953	0.936253	0.628552
	H10716	H	0.578645	0.982641	0.560855
	H10717	H	0.636574	0.894641	0.664199
	C10718	C	0.621728	0.896472	0.633357
	C10719	C	0.594724	0.937506	0.585418
	N10720	N	0.611744	0.909941	0.610543
	O10721	O	0.580755	0.954061	0.560995
	O10722	O	0.632762	0.873628	0.654394
	C10723	C	0.595488	0.980601	0.592468
	C10724	C	0.623331	0.939955	0.641103
	N10725	N	0.611174	0.966858	0.618740
	O10726	O	0.636509	0.923931	0.664892
	O10727	O	0.581762	1.003926	0.569147
	C10728	C	0.818211	0.872700	0.620355
	C10729	C	0.786515	0.882690	0.600797
	C10730	C	0.793486	0.879616	0.616645
	C10731	C	0.829715	0.867151	0.649944
	C10732	C	0.861401	0.857204	0.669490
	C10733	C	0.854345	0.860477	0.653494
	H10734	H	0.758515	0.891991	0.575239
	H10735	H	0.889537	0.847509	0.695342
	C10736	C	0.827348	0.866069	0.659738
	C10737	C	0.766587	0.887220	0.603801
	N10738	N	0.789039	0.877597	0.631569
	O10739	O	0.732720	0.898952	0.575886
	O10740	O	0.852282	0.857504	0.685847
	C10741	C	0.821232	0.872707	0.611533
	C10742	C	0.881591	0.852537	0.666828
	N10743	N	0.859843	0.860698	0.640274
	O10744	O	0.915149	0.841818	0.694077
	O10745	O	0.796698	0.880913	0.585786
	C10746	C	0.681806	0.536240	0.633573
	C10747	C	0.711884	0.537214	0.649931
	C10748	C	0.701939	0.563027	0.628485
	C10749	C	0.664607	0.586306	0.593269
	C10750	C	0.634555	0.585319	0.576962
	C10751	C	0.644408	0.559525	0.598227
	H10752	H	0.740892	0.519198	0.677272
	H10753	H	0.605576	0.603328	0.549644
	C10754	C	0.664195	0.610342	0.578086
	C10755	C	0.726593	0.571318	0.636841
	N10756	N	0.701988	0.599857	0.605133
	O10757	O	0.760342	0.557153	0.664308
	O10758	O	0.637834	0.633919	0.549144
	C10759	C	0.682037	0.512199	0.648289
	C10760	C	0.619393	0.551242	0.589000
	N10761	N	0.643704	0.522751	0.620065
	O10762	O	0.585432	0.565350	0.561123
	O10763	O	0.708629	0.488628	0.677654
	C10764	C	0.898982	0.795729	0.659727
	C10765	C	0.904620	0.772238	0.673754
	C10766	C	0.892830	0.772729	0.656940
	C10767	C	0.876554	0.795175	0.628089
	C10768	C	0.871350	0.818498	0.614400
	C10769	C	0.883028	0.818035	0.631121
	H10770	H	0.916767	0.754974	0.695794
	H10771	H	0.858686	0.836001	0.592032
	C10772	C	0.865949	0.789281	0.615687
	C10773	C	0.893603	0.751537	0.664282
	N10774	N	0.876796	0.762920	0.638396
	O10775	O	0.905831	0.729196	0.687207
	O10776	O	0.851254	0.803391	0.591569
	C10777	C	0.906465	0.802689	0.669857
	C10778	C	0.879576	0.840053	0.621823
	N10779	N	0.893797	0.829601	0.645840
	O10780	O	0.867519	0.862274	0.598938
	O10781	O	0.920183	0.788769	0.693333
	C10782	C	0.760596	0.722471	0.577761
	C10783	C	0.731237	0.723340	0.555080
	C10784	C	0.731999	0.701192	0.570216
	C10785	C	0.759456	0.680107	0.605117
	C10786	C	0.787792	0.679834	0.627146
	C10787	C	0.787979	0.701438	0.612640
	H10788	H	0.710233	0.739491	0.528175
	H10789	H	0.808769	0.663417	0.654082
	C10790	C	0.754658	0.658337	0.614336
	C10791	C	0.708275	0.693809	0.555670
	N10792	N	0.725229	0.667152	0.584471
	O10793	O	0.681080	0.707018	0.526143
	O10794	O	0.772393	0.637103	0.641613
	C10795	C	0.770847	0.741068	0.571924
	C10796	C	0.816797	0.705814	0.630370
	N10797	N	0.805548	0.729263	0.604974
	O10798	O	0.844571	0.692625	0.660053
	O10799	O	0.754066	0.761777	0.545226
	C10800	C	0.528315	0.634205	0.760208
	C10801	C	0.527937	0.620145	0.760376
	C10802	C	0.514863	0.604965	0.762515
	C10803	C	0.503056	0.603301	0.765236
	C10804	C	0.504160	0.617328	0.765461
	C10805	C	0.516439	0.633054	0.762635
	H10806	H	0.492816	0.591630	0.766711
	H10807	H	0.516408	0.644341	0.761987
	H10808	H	0.537342	0.621165	0.758617
	C10809	C	0.540662	0.687599	0.735821
	C10810	C	0.531540	0.712980	0.716895
	C10811	C	0.561599	0.714111	0.733444
	C10812	C	0.598050	0.691654	0.766206
	C10813	C	0.606932	0.666372	0.784726
	C10814	C	0.577098	0.665048	0.768628
	H10815	H	0.503371	0.730475	0.691530
	H10816	H	0.635134	0.648925	0.810093
	C10817	C	0.623386	0.700010	0.776724
	C10818	C	0.562313	0.737457	0.722005
	N10819	N	0.600458	0.727335	0.749880
	O10820	O	0.536476	0.760205	0.695318
	O10821	O	0.656443	0.686795	0.802452
	C10822	C	0.516097	0.678945	0.727063
	C10823	C	0.577056	0.641102	0.781981
	N10824	N	0.540007	0.650806	0.756354
	O10825	O	0.602545	0.618128	0.808712
	O10826	O	0.482946	0.692456	0.701070
	C10827	C	0.497283	0.584653	0.740351
	C10828	C	0.484741	0.587417	0.721705
	C10829	C	0.487313	0.565596	0.732250
	C10830	C	0.502027	0.542433	0.760007
	C10831	C	0.513930	0.539884	0.778196
	C10832	C	0.511098	0.561785	0.767481
	H10833	H	0.474076	0.605257	0.700745
	H10834	H	0.524400	0.522095	0.799011
	C10835	C	0.503052	0.522382	0.766024
	C10836	C	0.476711	0.561656	0.718350
	N10837	N	0.487494	0.535174	0.740180
	O10838	O	0.462091	0.577269	0.693788
	O10839	O	0.515073	0.499644	0.788433
	C10840	C	0.498164	0.604178	0.735600
	C10841	C	0.521082	0.566023	0.780885
	N10842	N	0.511989	0.591983	0.760198
	O10843	O	0.533934	0.551058	0.804186
	O10844	O	0.488869	0.626111	0.715059
	C10845	C	0.982359	0.619610	0.776447
	C10846	C	0.986083	0.620669	0.787956
	C10847	C	0.955331	0.626847	0.770837
	C10848	C	0.923405	0.631203	0.744522
	C10849	C	0.919570	0.630284	0.732864
	C10850	C	0.950011	0.624570	0.749508
	H10851	H	1.010930	0.617170	0.808508
	H10852	H	0.894560	0.633952	0.712163
	C10853	C	0.896299	0.637021	0.732286
	C10854	C	0.949306	0.630364	0.775682
	N10855	N	0.913016	0.636966	0.751244
	O10856	O	0.970448	0.628382	0.795843
	O10857	O	0.866336	0.640711	0.710980
	C10858	C	1.009268	0.614129	0.788363
	C10859	C	0.954722	0.623066	0.742654
	N10860	N	0.990865	0.616679	0.766894
	O10861	O	0.932940	0.626303	0.721302
	O10862	O	1.040438	0.608567	0.811442
	C10863	C	0.618851	0.766470	0.754192
	C10864	C	0.605302	0.752574	0.750729
	C10865	C	0.614916	0.741360	0.753890
	C10866	C	0.638213	0.743450	0.761041
	C10867	C	0.651814	0.757110	0.764981
	C10868	C	0.642110	0.768894	0.761314
	H10869	H	0.645492	0.734756	0.763449
	H10870	H	0.652558	0.779585	0.764146
	H10871	H	0.587166	0.751095	0.745009
	C10872	C	0.478224	0.491135	0.744234
	C10873	C	0.476821	0.504799	0.743613
	C10874	C	0.487190	0.521815	0.739364
	C10875	C	0.498215	0.525540	0.735209
	C10876	C	0.498769	0.511938	0.735370
	C10877	C	0.489331	0.494378	0.740368
	H10878	H	0.506321	0.538624	0.732026
	H10879	H	0.490390	0.483557	0.741060
	H10880	H	0.467806	0.502224	0.746308
	C10881	C	0.884909	0.658984	0.746555
	C10882	C	0.900404	0.655628	0.748984
	C10883	C	0.896242	0.641391	0.747645
	C10884	C	0.876874	0.630701	0.743894
	C10885	C	0.860678	0.635213	0.740323
	C10886	C	0.864437	0.649317	0.741562
	H10887	H	0.874185	0.619239	0.743588
	H10888	H	0.852502	0.652112	0.739617
	H10889	H	0.915584	0.663696	0.752207
	C10890	C	0.622559	0.791161	0.765674
	C10891	C	0.640672	0.791696	0.784540
	C10892	C	0.624384	0.817261	0.763528
	C10893	C	0.591526	0.840557	0.726067
	C10894	C	0.572950	0.839982	0.707063
	C10895	C	0.589993	0.814518	0.728292
	H10896	H	0.666271	0.773645	0.813623
	H10897	H	0.547830	0.858101	0.678107
	C10898	C	0.583371	0.864444	0.712595
	C10899	C	0.638699	0.825486	0.775410
	N10900	N	0.613709	0.854013	0.743787
	O10901	O	0.666185	0.811336	0.805495
	O10902	O	0.557207	0.887957	0.681928
	C10903	C	0.634426	0.767818	0.780073
	C10904	C	0.580286	0.807037	0.717583
	N10905	N	0.609071	0.779049	0.750161
	O10906	O	0.554278	0.821461	0.687869
	O10907	O	0.660346	0.744261	0.810628
	C10908	C	0.688804	0.788534	0.758245
	C10909	C	0.685769	0.810133	0.739985
	C10910	C	0.714070	0.812209	0.758967
	C10911	C	0.743691	0.793754	0.793969
	C10912	C	0.747371	0.771716	0.812645
	C10913	C	0.718807	0.769861	0.793460
	H10914	H	0.662731	0.824620	0.712749
	H10915	H	0.770065	0.757503	0.839633
	C10916	C	0.767300	0.803047	0.805078
	C10917	C	0.717896	0.833847	0.746619
	N10918	N	0.749774	0.827327	0.775245
	O10919	O	0.698303	0.853465	0.718309
	O10920	O	0.795283	0.792724	0.833164
	C10921	C	0.661529	0.781893	0.744801
	C10922	C	0.712317	0.750300	0.804058
	N10923	N	0.676187	0.759948	0.772751
	O10924	O	0.732766	0.730571	0.832860
	O10925	O	0.632651	0.792672	0.716267
	C10926	C	0.519771	0.510819	0.723447
	C10927	C	0.516919	0.508306	0.713376
	C10928	C	0.548336	0.501123	0.731574
	C10929	C	0.580305	0.496752	0.757945
	C10930	C	0.583017	0.499480	0.767802
	C10931	C	0.551587	0.506684	0.749591
	H10932	H	0.492352	0.511373	0.693251
	H10933	H	0.607868	0.495948	0.788379
	C10934	C	0.608479	0.489116	0.771965
	C10935	C	0.554814	0.496740	0.727564
	N10936	N	0.590862	0.490485	0.751664
	O10937	O	0.534259	0.497942	0.708212
	O10938	O	0.640055	0.482856	0.795745
	C10939	C	0.492467	0.516856	0.710902
	C10940	C	0.545440	0.510297	0.754288
	N10941	N	0.510252	0.515167	0.731491
	O10942	O	0.565347	0.509790	0.772871
	O10943	O	0.461551	0.522021	0.688169
	C10944	C	0.931585	0.958255	0.735486
	C10945	C	0.902001	0.956403	0.719068
	C10946	C	0.912267	0.930759	0.738604
	C10947	C	0.949472	0.908489	0.772185
	C10948	C	0.979056	0.910398	0.788542
	C10949	C	0.968854	0.936058	0.769048
	H10950	H	0.873133	0.973644	0.693040
	H10951	H	1.007932	0.893123	0.814624
	C10952	C	0.950135	0.884296	0.785433
	C10953	C	0.887956	0.921669	0.729316
	N10954	N	0.912482	0.893651	0.758655
	O10955	O	0.854460	0.934873	0.702837
	O10956	O	0.976542	0.861463	0.812798
	C10957	C	0.930444	0.982533	0.722042
	C10958	C	0.992889	0.945490	0.778107
	N10959	N	0.967959	0.973463	0.748710
	O10960	O	1.026402	0.932655	0.804455
	O10961	O	0.903776	1.005265	0.694610
	C10962	C	0.826510	0.608141	0.750063
	C10963	C	0.829209	0.594503	0.767740
	C10964	C	0.795712	0.607095	0.745095
	C10965	C	0.761594	0.631209	0.707324
	C10966	C	0.758683	0.644537	0.689581
	C10967	C	0.792445	0.632362	0.712314
	H10968	H	0.855749	0.575958	0.797060
	H10969	H	0.732428	0.663501	0.660329
	C10970	C	0.732258	0.639886	0.691824
	C10971	C	0.789454	0.599606	0.755087
	N10972	N	0.751345	0.620659	0.722024
	O10973	O	0.811718	0.580129	0.784802
	O10974	O	0.699261	0.659296	0.660436
	C10975	C	0.857431	0.602286	0.765907
	C10976	C	0.800488	0.642983	0.702779
	N10977	N	0.840325	0.625070	0.736271
	O10978	O	0.778547	0.663105	0.673137
	O10979	O	0.890471	0.582900	0.797220
	C10980	C	0.886298	0.700692	0.742312
	C10981	C	0.876257	0.723404	0.728154
	C10982	C	0.887186	0.718951	0.747017
	C10983	C	0.908298	0.693284	0.778839
	C10984	C	0.918017	0.670698	0.792808
	C10985	C	0.905808	0.675424	0.773159
	H10986	H	0.860182	0.743253	0.703658
	H10987	H	0.932664	0.651086	0.816369
	C10988	C	0.914233	0.695504	0.791553
	C10989	C	0.877234	0.738756	0.737363
	N10990	N	0.891997	0.723340	0.763828
	O10991	O	0.859537	0.762854	0.712154
	O10992	O	0.932524	0.677823	0.818807
	C10993	C	0.877548	0.697865	0.728419
	C10994	C	0.908571	0.656107	0.779082
	N10995	N	0.891538	0.670631	0.751721
	O10996	O	0.920979	0.633006	0.801372
	O10997	O	0.861635	0.714747	0.702768
	C10998	C	0.655462	0.890295	0.749680
	C10999	C	0.645136	0.901622	0.745919
	C11000	C	0.623624	0.897190	0.740997
	C11001	C	0.612911	0.881452	0.740308
	C11002	C	0.624241	0.870044	0.744741
	C11003	C	0.645321	0.874367	0.749279
	H11004	H	0.596466	0.878152	0.736612
	H11005	H	0.653442	0.865681	0.752209
	H11006	H	0.653127	0.913926	0.746219
	C11007	C	0.763270	0.874895	0.767358
	C11008	C	0.774579	0.882430	0.762210
	C11009	C	0.777808	0.871024	0.761821
	C11010	C	0.770394	0.852402	0.766787
	C11011	C	0.758952	0.845508	0.771576
	C11012	C	0.755083	0.856656	0.771751
	H11013	H	0.773060	0.843629	0.766568
	H11014	H	0.745901	0.851227	0.775234
	H11015	H	0.780421	0.896753	0.758452
	C11016	C	0.614776	0.479163	0.747017
	C11017	C	0.602064	0.477837	0.748881
	C11018	C	0.604144	0.491147	0.750227
	C11019	C	0.618026	0.505931	0.749126
	C11020	C	0.630671	0.506837	0.747412
	C11021	C	0.629417	0.493451	0.746540
	H11022	H	0.618762	0.516724	0.749294
	H11023	H	0.639557	0.494199	0.745463
	H11024	H	0.590514	0.466942	0.748890
	C11025	C	0.891657	0.845359	0.768300
	C11026	C	0.904055	0.861070	0.765635
	C11027	C	0.901047	0.876720	0.762412
	C11028	C	0.886454	0.876625	0.762283
	C11029	C	0.874417	0.860706	0.765119
	C11030	C	0.876559	0.845124	0.767870
	H11031	H	0.884511	0.888651	0.760040
	H11032	H	0.867003	0.833008	0.769917
	H11033	H	0.915552	0.861277	0.765844
	C11034	C	0.724031	0.648403	0.713881
	C11035	C	0.712162	0.634153	0.718691
	C11036	C	0.713115	0.615414	0.724285
	C11037	C	0.725336	0.610955	0.724862
	C11038	C	0.737270	0.625343	0.720255
	C11039	C	0.736870	0.644043	0.714856
	H11040	H	0.726553	0.596177	0.729748
	H11041	H	0.746202	0.655017	0.711334
	H11042	H	0.702995	0.637383	0.718537
	C11043	C	0.831578	0.734922	0.740498
	C11044	C	0.841685	0.745852	0.747241
	C11045	C	0.867484	0.750768	0.757761
	C11046	C	0.884139	0.744138	0.762760
	C11047	C	0.874020	0.732708	0.756527
	C11048	C	0.847486	0.728307	0.744980
	H11049	H	0.904312	0.747695	0.771250
	H11050	H	0.839840	0.719538	0.740130
	H11051	H	0.831196	0.749320	0.745998
	C11052	C	0.722315	0.883977	0.776990
	C11053	C	0.755131	0.870161	0.799605
	C11054	C	0.750915	0.880974	0.781775
	C11055	C	0.716832	0.904647	0.744048
	C11056	C	0.684259	0.918678	0.721539
	C11057	C	0.687939	0.907308	0.739198
	H11058	H	0.781682	0.851859	0.828909
	H11059	H	0.657581	0.936534	0.692318
	C11060	C	0.721788	0.909299	0.734232
	C11061	C	0.778184	0.869089	0.797210
	N11062	N	0.757982	0.885986	0.767119
	O11063	O	0.810303	0.848508	0.828677
	O11064	O	0.700027	0.928170	0.704874
	C11065	C	0.715544	0.876497	0.786603
	C11066	C	0.657847	0.915322	0.723282
	N11067	N	0.675976	0.895279	0.753127
	O11068	O	0.624587	0.934338	0.691724
	O11069	O	0.738022	0.858175	0.816193
	C11070	C	0.599614	0.960550	0.724744
	C11071	C	0.590428	0.963878	0.707547
	C11072	C	0.598701	0.941158	0.721105
	C11073	C	0.614923	0.916718	0.749836
	C11074	C	0.623808	0.913562	0.766815
	C11075	C	0.615964	0.936241	0.753564
	H11076	H	0.578641	0.982639	0.685855
	H11077	H	0.636593	0.894627	0.789213
	C11078	C	0.621737	0.896468	0.758360
	C11079	C	0.594722	0.937508	0.710413
	N11080	N	0.611737	0.909943	0.735534
	O11081	O	0.580729	0.954069	0.685974
	O11082	O	0.632782	0.873621	0.779404
	C11083	C	0.595495	0.980589	0.717479
	C11084	C	0.623345	0.939939	0.766119
	N11085	N	0.611184	0.966843	0.743755
	O11086	O	0.636525	0.923912	0.789910
	O11087	O	0.581766	1.003915	0.694157
	C11088	C	0.818218	0.872711	0.745351
	C11089	C	0.786521	0.882705	0.725789
	C11090	C	0.793491	0.879633	0.741637
	C11091	C	0.829721	0.867163	0.774939
	C11092	C	0.861409	0.857211	0.794488
	C11093	C	0.854353	0.860484	0.778492
	H11094	H	0.758521	0.892008	0.700230
	H11095	H	0.889546	0.847513	0.820342
	C11096	C	0.827353	0.866082	0.784732
	C11097	C	0.766591	0.887241	0.728789
	N11098	N	0.789042	0.877615	0.756559
	O11099	O	0.732722	0.898978	0.700870
	O11100	O	0.852288	0.857515	0.810842
	C11101	C	0.821240	0.872715	0.736531
	C11102	C	0.881600	0.852540	0.791830
	N11103	N	0.859852	0.860701	0.765276
	O11104	O	0.915158	0.841818	0.819080
	O11105	O	0.796706	0.880921	0.710783
	C11106	C	0.681842	0.536206	0.758614
	C11107	C	0.711923	0.537176	0.774975
	C11108	C	0.701984	0.562987	0.753535
	C11109	C	0.664656	0.586268	0.718323
	C11110	C	0.634600	0.585285	0.702013
	C11111	C	0.644448	0.559493	0.723272
	H11112	H	0.740929	0.519158	0.802313
	H11113	H	0.605624	0.603296	0.674697
	C11114	C	0.664250	0.610302	0.703146
	C11115	C	0.726642	0.571274	0.761895
	N11116	N	0.702042	0.599814	0.730192
	O11117	O	0.760390	0.557107	0.789361
	O11118	O	0.637894	0.633879	0.674209
	C11119	C	0.682066	0.512168	0.773324
	C11120	C	0.619428	0.551214	0.714040
	N11121	N	0.643733	0.522723	0.745100
	O11122	O	0.585467	0.565325	0.686163
	O11123	O	0.708654	0.488596	0.802684
	C11124	C	0.898998	0.795717	0.784745
	C11125	C	0.904641	0.772223	0.798777
	C11126	C	0.892849	0.772712	0.781965
	C11127	C	0.876568	0.795157	0.753110
	C11128	C	0.871358	0.818483	0.739415
	C11129	C	0.883039	0.818022	0.756135
	H11130	H	0.916793	0.754960	0.820821
	H11131	H	0.858689	0.835985	0.717043
	C11132	C	0.865963	0.789259	0.740710
	C11133	C	0.893626	0.751516	0.789312
	N11134	N	0.876817	0.762897	0.763425
	O11135	O	0.905859	0.729174	0.812240
	O11136	O	0.851262	0.803369	0.716589
	C11137	C	0.906484	0.802680	0.794874
	C11138	C	0.879584	0.840043	0.746833
	N11139	N	0.893811	0.829593	0.770853
	O11140	O	0.867522	0.862264	0.723944
	O11141	O	0.920205	0.788761	0.818351
	C11142	C	0.760620	0.722446	0.702791
	C11143	C	0.731269	0.723310	0.680114
	C11144	C	0.732030	0.701162	0.695250
	C11145	C	0.759478	0.680083	0.730145
	C11146	C	0.787803	0.679816	0.752168
	C11147	C	0.787994	0.701419	0.737664
	H11148	H	0.710273	0.739457	0.653214
	H11149	H	0.808772	0.663404	0.779099
	C11150	C	0.754683	0.658312	0.739367
	C11151	C	0.708317	0.693773	0.680712
	N11152	N	0.725267	0.667119	0.709512
	O11153	O	0.681133	0.706975	0.651192
	O11154	O	0.772412	0.637082	0.766641
	C11155	C	0.770873	0.741042	0.696956
	C11156	C	0.816808	0.705797	0.755393
	N11157	N	0.805568	0.729240	0.730002
	O11158	O	0.844573	0.692613	0.785070
	O11159	O	0.754098	0.761748	0.670262
	C11160	C	0.528367	0.634160	0.885272
	C11161	C	0.527987	0.620102	0.885438
	C11162	C	0.514907	0.604926	0.887569
	C11163	C	0.503098	0.603262	0.890289
	C11164	C	0.504202	0.617286	0.890516
	C11165	C	0.516486	0.633010	0.887694
	H11166	H	0.492854	0.591593	0.891759
	H11167	H	0.516455	0.644296	0.887048
	H11168	H	0.537394	0.621122	0.883680
	C11169	C	0.540736	0.687544	0.860912
	C11170	C	0.531625	0.712920	0.841999
	C11171	C	0.561689	0.714046	0.858554
	C11172	C	0.598135	0.691588	0.891310
	C11173	C	0.607006	0.666310	0.909817
	C11174	C	0.577167	0.664992	0.893713
	H11175	H	0.503461	0.730415	0.816640
	H11176	H	0.635203	0.648863	0.935179
	C11177	C	0.623479	0.699937	0.901837
	C11178	C	0.562415	0.737384	0.847130
	N11179	N	0.600562	0.727258	0.875008
	O11180	O	0.536586	0.760131	0.820453
	O11181	O	0.656533	0.686721	0.927563
	C11182	C	0.516164	0.678894	0.852145
	C11183	C	0.577115	0.641050	0.907054
	N11184	N	0.540065	0.650757	0.881425
	O11185	O	0.602597	0.618078	0.933778
	O11186	O	0.483015	0.692408	0.826153
	C11187	C	0.497320	0.584626	0.865392
	C11188	C	0.484778	0.587394	0.846744
	C11189	C	0.487340	0.565578	0.857279
	C11190	C	0.502046	0.542414	0.885031
	C11191	C	0.513951	0.539861	0.903223
	C11192	C	0.511128	0.561758	0.892517
	H11193	H	0.474120	0.605234	0.825789
	H11194	H	0.524414	0.522073	0.924033
	C11195	C	0.503061	0.522369	0.891038
	C11196	C	0.476738	0.561642	0.843376
	N11197	N	0.487502	0.535165	0.865191
	O11198	O	0.462104	0.577261	0.818804
	O11199	O	0.515075	0.499632	0.913441
	C11200	C	0.498206	0.604147	0.860648
	C11201	C	0.521115	0.565991	0.905926
	N11202	N	0.512029	0.591948	0.885246
	O11203	O	0.533964	0.551025	0.929226
	O11204	O	0.488915	0.626079	0.840111
	C11205	C	0.982372	0.619593	0.901469
	C11206	C	0.986077	0.620671	0.912955
	C11207	C	0.955322	0.626851	0.895832
	C11208	C	0.923410	0.631188	0.869535
	C11209	C	0.919593	0.630250	0.857899
	C11210	C	0.950037	0.624536	0.874546
	H11211	H	1.010914	0.617187	0.933493
	H11212	H	0.894594	0.633904	0.837211
	C11213	C	0.896297	0.637009	0.857290
	C11214	C	0.949276	0.630388	0.900651
	N11215	N	0.912994	0.636974	0.876225
	O11216	O	0.970411	0.628411	0.920806
	O11217	O	0.866342	0.640687	0.835996
	C11218	C	1.009290	0.614107	0.913394
	C11219	C	0.954763	0.623018	0.867709
	N11220	N	0.990902	0.616640	0.891944
	O11221	O	0.932993	0.626241	0.846372
	O11222	O	1.040454	0.608553	0.936467
	C11223	C	0.618979	0.766376	0.879347
	C11224	C	0.605424	0.752483	0.875878
	C11225	C	0.615031	0.741274	0.879030
	C11226	C	0.638327	0.743366	0.886180
	C11227	C	0.651934	0.757021	0.890127
	C11228	C	0.642237	0.768800	0.886468
	H11229	H	0.645597	0.734677	0.888579
	H11230	H	0.652688	0.779489	0.889304
	H11231	H	0.587288	0.751005	0.870159
	C11232	C	0.478215	0.491136	0.869227
	C11233	C	0.476817	0.504797	0.868613
	C11234	C	0.487190	0.521811	0.864368
	C11235	C	0.498211	0.525538	0.860209
	C11236	C	0.498759	0.511940	0.860363
	C11237	C	0.489317	0.494382	0.865357
	H11238	H	0.506319	0.538621	0.857027
	H11239	H	0.490373	0.483564	0.866046
	H11240	H	0.467805	0.502220	0.871310
	C11241	C	0.884857	0.659021	0.871498
	C11242	C	0.900364	0.655655	0.873942
	C11243	C	0.896205	0.641412	0.872608
	C11244	C	0.876827	0.630730	0.868847
	C11245	C	0.860618	0.635255	0.865260
	C11246	C	0.864376	0.649362	0.866495
	H11247	H	0.874140	0.619265	0.868545
	H11248	H	0.852432	0.652166	0.864538
	H11249	H	0.915552	0.663717	0.877172
	C11250	C	0.622673	0.791085	0.890808
	C11251	C	0.640781	0.791632	0.909663
	C11252	C	0.624478	0.817201	0.888637
	C11253	C	0.591611	0.840489	0.851174
	C11254	C	0.573040	0.839902	0.832182
	C11255	C	0.590098	0.814434	0.853425
	H11256	H	0.666386	0.773586	0.938746
	H11257	H	0.547913	0.858015	0.803224
	C11258	C	0.583439	0.864385	0.837684
	C11259	C	0.638782	0.825440	0.900503
	N11260	N	0.613777	0.853966	0.868868
	O11261	O	0.666272	0.811299	0.930584
	O11262	O	0.557263	0.887894	0.807011
	C11263	C	0.634554	0.767735	0.905221
	C11264	C	0.580398	0.806942	0.842727
	N11265	N	0.609197	0.778956	0.875314
	O11266	O	0.554385	0.821358	0.813016
	O11267	O	0.660484	0.744181	0.935782
	C11268	C	0.688884	0.788465	0.883349
	C11269	C	0.685829	0.810071	0.865073
	C11270	C	0.714119	0.812159	0.884040
	C11271	C	0.743749	0.793710	0.919043
	C11272	C	0.747449	0.771666	0.937734
	C11273	C	0.718894	0.769799	0.918565
	H11274	H	0.662784	0.824553	0.837836
	H11275	H	0.770149	0.757457	0.964724
	C11276	C	0.767345	0.803016	0.930134
	C11277	C	0.717923	0.833808	0.871670
	N11278	N	0.749802	0.827297	0.900289
	O11279	O	0.698314	0.853426	0.843351
	O11280	O	0.795331	0.792700	0.958216
	C11281	C	0.661624	0.781811	0.869925
	C11282	C	0.712423	0.750230	0.929182
	N11283	N	0.676296	0.759865	0.897885
	O11284	O	0.732883	0.730502	0.957989
	O11285	O	0.632747	0.792579	0.841398
	C11286	C	0.519754	0.510833	0.848428
	C11287	C	0.516897	0.508327	0.838351
	C11288	C	0.548313	0.501147	0.856545
	C11289	C	0.580283	0.496772	0.882920
	C11290	C	0.583000	0.499494	0.892784
	C11291	C	0.551571	0.506695	0.874576
	H11292	H	0.492329	0.511397	0.818222
	H11293	H	0.607852	0.495960	0.913363
	C11294	C	0.608456	0.489139	0.896937
	C11295	C	0.554785	0.496773	0.852527
	N11296	N	0.590839	0.490510	0.876634
	O11297	O	0.534236	0.497967	0.833183
	O11298	O	0.640032	0.482880	0.920718
	C11299	C	0.492453	0.516865	0.835888
	C11300	C	0.545429	0.510301	0.879279
	N11301	N	0.510240	0.515172	0.856482
	O11302	O	0.565339	0.509789	0.897867
	O11303	O	0.461536	0.522032	0.813154
	C11304	C	0.931574	0.958258	0.860478
	C11305	C	0.901990	0.956406	0.844062
	C11306	C	0.912255	0.930762	0.863598
	C11307	C	0.949460	0.908492	0.897177
	C11308	C	0.979043	0.910401	0.913533
	C11309	C	0.968841	0.936062	0.894039
	H11310	H	0.873123	0.973647	0.818036
	H11311	H	1.007919	0.893126	0.939614
	C11312	C	0.950123	0.884299	0.910425
	C11313	C	0.887944	0.921673	0.854310
	N11314	N	0.912472	0.893654	0.883652
	O11315	O	0.854453	0.934873	0.827842
	O11316	O	0.976529	0.861467	0.937789
	C11317	C	0.930434	0.982536	0.847034
	C11318	C	0.992877	0.945493	0.903097
	N11319	N	0.967948	0.973466	0.873701
	O11320	O	1.026389	0.932658	0.929444
	O11321	O	0.903766	1.005268	0.819604
	C11322	C	0.826435	0.608193	0.874984
	C11323	C	0.829131	0.594552	0.892660
	C11324	C	0.795636	0.607148	0.870015
	C11325	C	0.761522	0.631269	0.832246
	C11326	C	0.758614	0.644599	0.814504
	C11327	C	0.792374	0.632420	0.837236
	H11328	H	0.855668	0.576002	0.921980
	H11329	H	0.732363	0.663568	0.785252
	C11330	C	0.732189	0.639948	0.816748
	C11331	C	0.789379	0.599658	0.880008
	N11332	N	0.751273	0.620714	0.846947
	O11333	O	0.811633	0.580167	0.909721
	O11334	O	0.699197	0.659365	0.785360
	C11335	C	0.857357	0.602333	0.890831
	C11336	C	0.800420	0.643039	0.827704
	N11337	N	0.840256	0.625119	0.861199
	O11338	O	0.778483	0.663164	0.798064
	O11339	O	0.890394	0.582943	0.922143
	C11340	C	0.886241	0.700734	0.867247
	C11341	C	0.876197	0.723447	0.853087
	C11342	C	0.887132	0.718994	0.871953
	C11343	C	0.908253	0.693326	0.903780
	C11344	C	0.917974	0.670740	0.917752
	C11345	C	0.905758	0.675465	0.898099
	H11346	H	0.860116	0.743296	0.828588
	H11347	H	0.932628	0.651127	0.941318
	C11348	C	0.914194	0.695546	0.916499
	C11349	C	0.877180	0.738799	0.862299
	N11350	N	0.891953	0.723382	0.888771
	O11351	O	0.859476	0.762898	0.837086
	O11352	O	0.932495	0.677865	0.943758
	C11353	C	0.877488	0.697906	0.853354
	C11354	C	0.908523	0.656146	0.904025
	N11355	N	0.891485	0.670670	0.876661
	O11356	O	0.920936	0.633045	0.926319
	O11357	O	0.861568	0.714789	0.827698
	C11358	C	0.655487	0.890279	0.874710
	C11359	C	0.645148	0.901615	0.870935
	C11360	C	0.623642	0.897180	0.866019
	C11361	C	0.612947	0.881429	0.865351
	C11362	C	0.624290	0.870011	0.869799
	C11363	C	0.645364	0.874338	0.874330
	H11364	H	0.596508	0.878125	0.861661
	H11365	H	0.653493	0.865646	0.877270
	H11366	H	0.653124	0.913929	0.871218
	C11367	C	0.763279	0.874880	0.892375
	C11368	C	0.774580	0.882417	0.887220
	C11369	C	0.777808	0.871007	0.886835
	C11370	C	0.770401	0.852381	0.891809
	C11371	C	0.758969	0.845484	0.896606
	C11372	C	0.755101	0.856636	0.896780
	H11373	H	0.773067	0.843605	0.891592
	H11374	H	0.745925	0.851205	0.900270
	H11375	H	0.780417	0.896742	0.883456
	C11376	C	0.614761	0.479182	0.871997
	C11377	C	0.602047	0.477858	0.873859
	C11378	C	0.604122	0.491171	0.875200
	C11379	C	0.618001	0.505957	0.874096
	C11380	C	0.630648	0.506862	0.872383
	C11381	C	0.629400	0.493471	0.871517
	H11382	H	0.618733	0.516752	0.874260
	H11383	H	0.639541	0.494219	0.870442
	H11384	H	0.590497	0.466962	0.873869
	C11385	C	0.891645	0.845364	0.893292
	C11386	C	0.904043	0.861075	0.890627
	C11387	C	0.901037	0.876722	0.887407
	C11388	C	0.886444	0.876625	0.887281
	C11389	C	0.874407	0.860707	0.890115
	C11390	C	0.876548	0.845127	0.892864
	H11391	H	0.884504	0.888649	0.885041
	H11392	H	0.866991	0.833011	0.894909
	H11393	H	0.915539	0.861284	0.890835
	C11394	C	0.723983	0.648443	0.838830
	C11395	C	0.712112	0.634194	0.843638
	C11396	C	0.713058	0.615458	0.849224
	C11397	C	0.725271	0.611004	0.849793
	C11398	C	0.737205	0.625393	0.845186
	C11399	C	0.736815	0.644088	0.839797
	H11400	H	0.726483	0.596230	0.854673
	H11401	H	0.746148	0.655060	0.836277
	H11402	H	0.702952	0.637418	0.843491
	C11403	C	0.831553	0.734949	0.865463
	C11404	C	0.841663	0.745877	0.872210
	C11405	C	0.867458	0.750795	0.882725
	C11406	C	0.884106	0.744172	0.887715
	C11407	C	0.873982	0.732746	0.881477
	C11408	C	0.847452	0.728341	0.869935
	H11409	H	0.904276	0.747731	0.896201
	H11410	H	0.839804	0.719574	0.865083
	H11411	H	0.831179	0.749341	0.870973
	C11412	C	0.722330	0.883968	0.902009
	C11413	C	0.755147	0.870155	0.924622
	C11414	C	0.750927	0.880967	0.906790
	C11415	C	0.716840	0.904635	0.869064
	C11416	C	0.684267	0.918663	0.846555
	C11417	C	0.687950	0.907294	0.864217
	H11418	H	0.781701	0.851857	0.953927
	H11419	H	0.657586	0.936515	0.817335
	C11420	C	0.721795	0.909287	0.859247
	C11421	C	0.778197	0.869084	0.922226
	N11422	N	0.757990	0.885975	0.892133
	O11423	O	0.810313	0.848498	0.953692
	O11424	O	0.700032	0.928157	0.829888
	C11425	C	0.715563	0.876489	0.911624
	C11426	C	0.657859	0.915305	0.848303
	N11427	N	0.675993	0.895265	0.878150
	O11428	O	0.624598	0.934317	0.816745
	O11429	O	0.738044	0.858171	0.941215
	C11430	C	0.599608	0.960560	0.849735
	C11431	C	0.590427	0.963883	0.832544
	C11432	C	0.598700	0.941161	0.846105
	C11433	C	0.614914	0.916725	0.874830
	C11434	C	0.623794	0.913573	0.891804
	C11435	C	0.615953	0.936253	0.878552
	H11436	H	0.578645	0.982641	0.810855
	H11437	H	0.636574	0.894641	0.914199
	C11438	C	0.621728	0.896472	0.883357
	C11439	C	0.594724	0.937506	0.835418
	N11440	N	0.611744	0.909941	0.860543
	O11441	O	0.580755	0.954061	0.810995
	O11442	O	0.632762	0.873628	0.904394
	C11443	C	0.595488	0.980601	0.842468
	C11444	C	0.623331	0.939955	0.891103
	N11445	N	0.611174	0.966858	0.868740
	O11446	O	0.636509	0.923931	0.914892
	O11447	O	0.581762	1.003926	0.819147
	C11448	C	0.818211	0.872700	0.870355
	C11449	C	0.786515	0.882690	0.850797
	C11450	C	0.793486	0.879616	0.866645
	C11451	C	0.829715	0.867151	0.899944
	C11452	C	0.861401	0.857204	0.919490
	C11453	C	0.854345	0.860477	0.903494
	H11454	H	0.758515	0.891991	0.825239
	H11455	H	0.889537	0.847509	0.945342
	C11456	C	0.827348	0.866069	0.909738
	C11457	C	0.766587	0.887220	0.853801
	N11458	N	0.789039	0.877597	0.881569
	O11459	O	0.732720	0.898952	0.825886
	O11460	O	0.852282	0.857504	0.935847
	C11461	C	0.821232	0.872707	0.861533
	C11462	C	0.881591	0.852537	0.916828
	N11463	N	0.859843	0.860698	0.890274
	O11464	O	0.915149	0.841818	0.944077
	O11465	O	0.796698	0.880913	0.835786
	C11466	C	0.681806	0.536240	0.883573
	C11467	C	0.711884	0.537214	0.899931
	C11468	C	0.701939	0.563027	0.878485
	C11469	C	0.664607	0.586306	0.843269
	C11470	C	0.634555	0.585319	0.826962
	C11471	C	0.644408	0.559525	0.848227
	H11472	H	0.740892	0.519198	0.927272
	H11473	H	0.605576	0.603328	0.799644
	C11474	C	0.664195	0.610342	0.828086
	C11475	C	0.726593	0.571318	0.886841
	N11476	N	0.701988	0.599857	0.855133
	O11477	O	0.760342	0.557153	0.914308
	O11478	O	0.637834	0.633919	0.799144
	C11479	C	0.682037	0.512199	0.898289
	C11480	C	0.619393	0.551242	0.839000
	N11481	N	0.643704	0.522751	0.870065
	O11482	O	0.585432	0.565350	0.811123
	O11483	O	0.708629	0.488628	0.927654
	C11484	C	0.898982	0.795729	0.909727
	C11485	C	0.904620	0.772238	0.923754
	C11486	C	0.892830	0.772729	0.906940
	C11487	C	0.876554	0.795175	0.878089
	C11488	C	0.871350	0.818498	0.864400
	C11489	C	0.883028	0.818035	0.881121
	H11490	H	0.916767	0.754974	0.945794
	H11491	H	0.858686	0.836001	0.842032
	C11492	C	0.865949	0.789281	0.865687
	C11493	C	0.893603	0.751537	0.914282
	N11494	N	0.876796	0.762920	0.888396
	O11495	O	0.905831	0.729196	0.937207
	O11496	O	0.851254	0.803391	0.841569
	C11497	C	0.906465	0.802689	0.919857
	C11498	C	0.879576	0.840053	0.871823
	N11499	N	0.893797	0.829601	0.895840
	O11500	O	0.867519	0.862274	0.848938
	O11501	O	0.920183	0.788769	0.943333
	C11502	C	0.760596	0.722471	0.827761
	C11503	C	0.731237	0.723340	0.805080
	C11504	C	0.731999	0.701192	0.820216
	C11505	C	0.759456	0.680107	0.855117
	C11506	C	0.787792	0.679834	0.877146
	C11507	C	0.787979	0.701438	0.862640
	H11508	H	0.710233	0.739491	0.778175
	H11509	H	0.808769	0.663417	0.904082
	C11510	C	0.754658	0.658337	0.864336
	C11511	C	0.708275	0.693809	0.805670
	N11512	N	0.725229	0.667152	0.834471
	O11513	O	0.681080	0.707018	0.776143
	O11514	O	0.772393	0.637103	0.891613
	C11515	C	0.770847	0.741068	0.821924
	C11516	C	0.816797	0.705814	0.880370
	N11517	N	0.805548	0.729263	0.854974
	O11518	O	0.844571	0.692625	0.910053
	O11519	O	0.754066	0.761777	0.795226
	N11520	N	0.425634	0.392134	0.941602
	N11521	N	0.425571	0.379381	0.943505
	N11522	N	0.743099	0.766003	0.132491
	N11523	N	0.761214	0.768181	0.146955
	N11524	N	0.774115	0.579651	0.585103
	N11525	N	0.759406	0.597116	0.570829
	N11526	N	0.407543	0.788477	0.723983
	N11527	N	0.381661	0.806076	0.694646
	N11528	N	0.841912	0.440226	0.913706
	N11529	N	0.870055	0.435547	0.933310
	N11530	N	0.272269	0.751567	0.145161
	N11531	N	0.290494	0.735810	0.160142
	N11532	N	0.546045	0.846180	0.842662
	N11533	N	0.532914	0.837781	0.842689
	N11534	N	0.189485	0.466260	0.279555
	N11535	N	0.202247	0.465166	0.281186
	N11536	N	0.847262	0.607444	0.570203
	N11537	N	0.878111	0.593381	0.598344
	N11538	N	0.503475	0.737828	0.414656
	N11539	N	0.495679	0.740794	0.400572
	N11540	N	0.771400	0.076525	0.555195
	N11541	N	0.801729	0.062421	0.580209
	N11542	N	0.440998	0.360286	0.370447
	N11543	N	0.436113	0.356044	0.362671
	N11544	N	0.321850	0.639616	0.394020
	N11545	N	0.335475	0.648985	0.395243
	N11546	N	0.373261	0.021390	0.969444
	N11547	N	0.399749	0.007477	0.997720
	N11548	N	0.446032	0.894743	0.372704
	N11549	N	0.450149	0.905488	0.363704
	N11550	N	0.062507	0.080788	0.136053
	N11551	N	0.077639	0.076691	0.154487
	N11552	N	0.025482	0.710327	0.813217
	N11553	N	0.004874	0.729844	0.785865
	N11554	N	0.808688	0.793718	0.744973
	N11555	N	0.835471	0.773716	0.774310
	N11556	N	0.024907	0.729580	0.293014
	N11557	N	0.054411	0.720462	0.318381
	N11558	N	0.686103	0.011772	0.123029
	N11559	N	0.703672	0.012949	0.128032
	N11560	N	0.848934	0.593207	0.606337
	N11561	N	0.848524	0.578656	0.610171
	N11562	N	0.217896	0.135789	0.401796
	N11563	N	0.197201	0.134996	0.385564
	N11564	N	0.080245	0.538636	0.161012
	N11565	N	0.063816	0.557047	0.135998
	N11566	N	0.653329	0.605722	0.616397
	N11567	N	0.655325	0.601783	0.627572
	N11568	N	0.318272	0.173081	0.124117
	N11569	N	0.342327	0.163075	0.149647
	N11570	N	0.920231	0.899650	0.432111
	N11571	N	0.950622	0.885732	0.457125
	N11572	N	0.273280	0.265031	0.902178
	N11573	N	0.294246	0.243472	0.925914
	N11574	N	0.287891	0.991681	0.179120
	N11575	N	0.299701	1.002658	0.179147
	N11576	N	0.915137	0.481652	0.056716
	N11577	N	0.889377	0.483391	0.041191
	N11578	N	0.774978	0.189507	0.178413
	N11579	N	0.752740	0.192265	0.167673
	N11580	N	0.214214	0.598859	0.069603
	N11581	N	0.237155	0.577407	0.094807
	N11582	N	0.806314	0.514930	0.811694
	N11583	N	0.800996	0.499944	0.817105
	N11584	N	0.604508	0.328613	0.280969
	N11585	N	0.612936	0.312644	0.290159
	N11586	N	0.591887	0.053521	0.034285
	N11587	N	0.560784	0.068076	0.006770
	N11588	N	0.687721	0.540779	0.161230
	N11589	N	0.661075	0.561044	0.132110
	N11590	N	0.747681	0.510166	0.613760
	N11591	N	0.727403	0.524162	0.598697
	N11592	N	0.096034	0.776594	0.794756
	N11593	N	0.117049	0.779517	0.803864
	N11594	N	0.057982	0.679140	0.905387
	N11595	N	0.071105	0.669697	0.911994
	N11596	N	0.984298	0.226441	0.586163
	N11597	N	1.005589	0.208210	0.613787
	N11598	N	0.658750	0.632381	0.103481
	N11599	N	0.689815	0.617866	0.131295
	N11600	N	0.941251	0.954856	0.200273
	N11601	N	0.966382	0.947093	0.215797
	N11602	N	0.044911	0.271690	0.979068
	N11603	N	0.024404	0.285848	0.952913
	N11604	N	0.766050	0.544229	0.695897
	N11605	N	0.764269	0.551403	0.697963
	N11606	N	0.340641	0.004729	0.705794
	N11607	N	0.352241	0.004519	0.706120
	N11608	N	0.658295	0.958362	0.989074
	N11609	N	0.661609	0.971281	0.979286
	N11610	N	0.240615	0.614114	0.773739
	N11611	N	0.258562	0.593976	0.793124
	N11612	N	0.843585	0.804968	0.897855
	N11613	N	0.832015	0.809523	0.895381
	N11614	N	0.723386	0.733683	0.867322
	N11615	N	0.752385	0.715455	0.894348
	N11616	N	0.996848	0.308934	0.617892
	N11617	N	0.993392	0.293377	0.623058
	N11618	N	0.777376	0.809972	0.085128
	N11619	N	0.797073	0.809433	0.102502
	N11620	N	0.263183	0.483049	0.158511
	N11621	N	0.289672	0.469576	0.186597
	N11622	N	0.889969	0.442342	0.797556
	N11623	N	0.868882	0.463093	0.775152
	N11624	N	0.978054	0.960057	0.854054
	N11625	N	0.981014	0.942898	0.868954
	N11626	N	0.157791	0.236926	0.096221
	N11627	N	0.184609	0.219607	0.125748
	N11628	N	0.693982	0.354930	0.506527
	N11629	N	0.669505	0.371433	0.477925
	N11630	N	0.983244	0.473128	0.297119
	N11631	N	0.993984	0.465341	0.315417
	N11632	N	0.728947	0.497707	0.979775
	N11633	N	0.700006	0.503731	0.958758
	N11634	N	0.801091	0.173006	0.990841
	N11635	N	0.799425	0.157202	0.996279
	N11636	N	0.693111	0.345950	0.893967
	N11637	N	0.714042	0.334261	0.907888
	N11638	N	0.483636	0.993562	0.539888
	N11639	N	0.486457	0.983342	0.554162
	N11640	N	0.158945	0.117750	0.541003
	N11641	N	0.159985	0.104378	0.554597
	N11642	N	0.757139	0.053527	0.102475
	N11643	N	0.767757	0.044510	0.107097
	N11644	N	0.814116	0.958024	0.234585
	N11645	N	0.813666	0.948501	0.233253
	N11646	N	0.610370	0.175047	0.582493
	N11647	N	0.625175	0.181160	0.584070
	N11648	N	0.095674	0.724261	0.035101
	N11649	N	0.119080	0.719186	0.057096
	N11650	N	0.735105	0.092968	0.286216
	N11651	N	0.713118	0.096402	0.265852
	N11652	N	0.226641	0.609457	0.547419
	N11653	N	0.245065	0.588937	0.573439
	N11654	N	0.426771	0.461931	0.061474
	N11655	N	0.401620	0.465569	0.047200
	N11656	N	0.270264	0.009902	0.296167
	N11657	N	0.274291	-0.009189	0.310061
	N11658	N	0.854859	0.415076	0.021697
	N11659	N	0.872863	0.412667	0.040103
	N11660	N	0.227988	0.455747	0.985539
	N11661	N	0.229443	0.437597	0.996659
	N11662	N	0.579791	0.088689	0.766642
	N11663	N	0.562842	0.081339	0.759818
	N11664	N	0.107224	0.055522	0.608920
	N11665	N	0.107739	0.072761	0.598670
	N11666	N	0.727915	0.033987	0.812428
	N11667	N	0.750544	0.012312	0.837904
	N11668	N	0.501920	0.308538	0.808377
	N11669	N	0.508001	0.296107	0.812945
	N11670	N	0.595901	0.745670	0.184231
	N11671	N	0.623073	0.741866	0.201686
	N11672	N	0.429765	0.677522	0.590160
	N11673	N	0.444296	0.686719	0.593368
	N11674	N	0.038449	0.306265	0.221779
	N11675	N	0.042489	0.290700	0.228467
	N11676	N	0.852560	0.578855	0.854544
	N11677	N	0.835125	0.576703	0.840188
	N11678	N	0.855064	0.991343	0.866887
	N11679	N	0.852203	0.997269	0.854217
	N11680	N	0.814384	0.620040	0.826131
	N11681	N	0.831303	0.600948	0.851444
	N11682	N	0.997842	0.482138	0.057178
	N11683	N	0.986337	0.471561	0.058347
	N11684	N	0.705744	0.594684	0.947366
	N11685	N	0.681888	0.603609	0.932548
	N11686	N	0.450977	0.975806	0.794239
	N11687	N	0.449268	0.991360	0.788448
	N11688	N	0.733662	0.448869	0.810308
	N11689	N	0.723970	0.466908	0.798127
	N11690	N	0.204055	0.078129	0.644429
	N11691	N	0.230072	0.063072	0.673059
	N11692	N	0.708235	0.469591	0.614222
	N11693	N	0.689184	0.487058	0.597093
	N11694	N	0.452370	0.516091	0.013159
	N11695	N	0.460513	0.497979	0.032382
	N11696	N	0.751534	0.243521	0.020582
	N11697	N	0.778043	0.241277	0.038010
	N11698	N	0.233467	0.810161	0.584260
	N11699	N	0.225704	0.796523	0.587278
	N11700	N	0.094217	0.602186	0.768029
	N11701	N	0.067790	0.605248	0.751797
	N11702	N	0.033081	0.414174	0.354270
	N11703	N	0.051498	0.392096	0.378631
	N11704	N	0.952219	0.223120	0.763298
	N11705	N	0.939980	0.226340	0.746767
	N11706	N	0.407220	0.901980	0.664847
	N11707	N	0.418824	0.913101	0.666588
	N11708	N	0.085723	0.052194	0.799378
	N11709	N	0.089721	0.056513	0.792091
	N11710	N	0.992906	0.954304	0.991303
	N11711	N	0.997158	0.936410	1.007127
	N11712	N	0.352017	0.111580	0.057423
	N11713	N	0.323757	0.116938	0.038173
	N11714	N	0.514809	0.659391	0.275287
	N11715	N	0.498084	0.671990	0.251605
	N11716	N	0.556553	0.564314	0.003942
	N11717	N	0.555064	0.571374	0.006253
	N11718	N	0.040037	0.927941	0.720476
	N11719	N	0.023437	0.948628	0.695652
	N11720	N	0.974994	0.381967	0.135890
	N11721	N	0.958921	0.384813	0.117891
	N11722	N	0.460689	0.271909	0.166477
	N11723	N	0.488485	0.267082	0.187875
	N11724	N	0.717654	0.104514	0.014845
	N11725	N	0.718919	0.089234	0.020147
	N11726	N	0.750881	0.159504	0.635620
	N11727	N	0.726745	0.169652	0.619877
	N11728	N	0.650396	0.662398	0.341247
	N11729	N	0.675056	0.641111	0.369278
	N11730	N	0.561376	0.665183	0.219577
	N11731	N	0.568984	0.675611	0.222785
	N11732	N	0.909382	0.873988	0.589997
	N11733	N	0.932981	0.852985	0.614902
	N11734	N	0.607577	0.078823	0.916942
	N11735	N	0.611687	0.093204	0.908377
	N11736	N	0.319957	0.966966	0.833989
	N11737	N	0.302710	0.963771	0.820721
	N11738	N	0.186939	0.677707	0.098043
	N11739	N	0.189250	0.693494	0.092632
	N11740	N	0.600705	0.125732	0.838611
	N11741	N	0.589719	0.138548	0.818111
	N11742	N	0.298524	0.148002	0.673004
	N11743	N	0.310912	0.129097	0.687605
	N11744	N	0.536593	0.263396	0.276184
	N11745	N	0.565570	0.250276	0.304433
	N11746	N	0.254412	0.483388	0.922217
	N11747	N	0.227933	0.496131	0.894511
	N11748	N	0.960214	0.869719	0.355657
	N11749	N	0.944221	0.883563	0.331894
	N11750	N	0.700131	0.722618	0.492824
	N11751	N	0.674575	0.723640	0.476701
	N11752	N	0.974370	0.234131	0.716778
	N11753	N	0.996146	0.222319	0.742471
	N11754	N	0.405870	0.402444	0.187548
	N11755	N	0.428225	0.401895	0.198016
	N11756	N	0.244896	0.973248	0.400600
	N11757	N	0.238303	0.959204	0.403291
	N11758	N	0.222595	0.648675	0.267103
	N11759	N	0.196345	0.669467	0.239180
	N11760	N	0.167857	0.472841	0.882276
	N11761	N	0.165504	0.482911	0.868383
	N11762	N	0.319451	0.934522	0.509110
	N11763	N	0.308042	0.930724	0.498099
	N11764	N	0.920391	0.414632	0.526022
	N11765	N	0.950349	0.397240	0.555304
	N11766	N	0.030085	0.744231	0.895653
	N11767	N	0.050586	0.746193	0.910553
	N11768	N	0.427496	0.435816	0.147010
	N11769	N	0.405531	0.457398	0.119794
	N11770	N	0.096504	0.052379	0.897393
	N11771	N	0.088029	0.066036	0.890406
	N11772	N	0.687418	0.574717	0.712972
	N11773	N	0.660531	0.577473	0.694891
	C11774	C	0.355847	0.063669	0.133769
	O11775	O	0.374617	0.052962	0.144753
	O11776	O	0.337092	0.074360	0.122812
	C11777	C	0.236687	0.827544	0.732221
	O11778	O	0.254648	0.834131	0.742254
	O11779	O	0.218725	0.820957	0.722189
	C11780	C	0.876883	0.036659	0.878252
	O11781	O	0.863611	0.057796	0.854734
	O11782	O	0.890166	0.015522	0.901771
	C11783	C	0.994151	0.310479	0.124090
	O11784	O	0.981311	0.302804	0.115715
	O11785	O	1.006981	0.318154	0.132464
	C11786	C	0.281116	0.685102	0.203535
	O11787	O	0.278492	0.695060	0.203481
	O11788	O	0.283723	0.675131	0.203590
	C11789	C	0.754254	0.651220	0.267021
	O11790	O	0.763462	0.632346	0.287902
	O11791	O	0.745036	0.670094	0.246140
	C11792	C	0.316503	0.660035	0.006498
	O11793	O	0.300739	0.651698	-0.001169
	O11794	O	0.332268	0.668371	0.014165
	C11795	C	0.811288	0.936018	0.129908
	O11796	O	0.787709	0.933425	0.115743
	O11797	O	0.834857	0.938610	0.144073
	C11798	C	0.507184	0.147623	0.824772
	O11799	O	0.535882	0.126147	0.855332
	O11800	O	0.478468	0.169127	0.794185
	C11801	C	0.425411	0.950522	0.889862
	O11802	O	0.407616	0.953484	0.883853
	O11803	O	0.443206	0.947559	0.895871
	C11804	C	0.649580	0.810997	0.817812
	O11805	O	0.675628	0.790132	0.848589
	O11806	O	0.623557	0.831846	0.787061
	C11807	C	0.752057	0.594663	0.918791
	O11808	O	0.776577	0.589960	0.941493
	O11809	O	0.727541	0.599354	0.896088
	C11810	C	0.069879	0.369023	0.017183
	O11811	O	0.101119	0.352129	0.048342
	O11812	O	0.038634	0.385928	-0.013975
	C11813	C	0.368081	0.281467	0.804244
	O11814	O	0.393244	0.258702	0.833581
	O11815	O	0.342881	0.304249	0.774881
	C11816	C	0.894646	0.491110	0.793505
	O11817	O	0.922666	0.475855	0.823684
	O11818	O	0.866652	0.506348	0.763352
	C11819	C	0.689589	0.812111	0.461747
	O11820	O	0.702454	0.822032	0.460741
	O11821	O	0.676713	0.802190	0.462753
	C11822	C	0.545841	0.446566	0.880618
	O11823	O	0.536764	0.459130	0.874799
	O11824	O	0.554929	0.434002	0.886436
	C11825	C	0.865895	0.562706	0.982739
	O11826	O	0.879211	0.572795	0.982413
	O11827	O	0.852548	0.552622	0.983038
	C11828	C	0.325086	0.767332	0.262127
	O11829	O	0.301505	0.767990	0.243258
	O11830	O	0.348658	0.766675	0.280996
	C11831	C	0.479080	0.443003	0.858432
	O11832	O	0.473950	0.440543	0.848752
	O11833	O	0.484221	0.445463	0.868111
	C11834	C	0.578669	0.377372	0.010848
	O11835	O	0.551074	0.384100	-0.013948
	O11836	O	0.606239	0.370661	0.035617
	C11837	C	0.761246	0.468845	0.612563
	O11838	O	0.749712	0.490991	0.594075
	O11839	O	0.772769	0.446698	0.631052
	C11840	C	0.751666	0.957672	0.245759
	O11841	O	0.728357	0.980157	0.216559
	O11842	O	0.774972	0.935199	0.274960
	C11843	C	0.399945	0.937520	0.005302
	O11844	O	0.411433	0.921219	0.015824
	O11845	O	0.388446	0.953821	-0.005220
	C11846	C	0.992835	0.312136	0.393639
	O11847	O	1.011107	0.312019	0.398996
	O11848	O	0.974566	0.312241	0.388283
	C11849	C	0.015149	0.318121	0.336217
	O11850	O	0.039705	0.316580	0.348452
	O11851	O	-0.009432	0.319678	0.323954
	C11852	C	0.088485	0.849487	0.429664
	O11853	O	0.118875	0.830236	0.461149
	O11854	O	0.058070	0.868755	0.398153
	C11855	C	0.276497	0.226685	0.508784
	O11856	O	0.304465	0.206958	0.534532
	O11857	O	0.248554	0.246396	0.483063
	C11858	C	0.202144	0.811849	0.847774
	O11859	O	0.179293	0.809691	0.837578
	O11860	O	0.224989	0.813995	0.857969
	C11861	C	0.113375	0.798750	0.042550
	O11862	O	0.095188	0.821748	0.019657
	O11863	O	0.131594	0.775747	0.065471
	C11864	C	0.064326	0.931270	0.392090
	O11865	O	0.096846	0.915474	0.419985
	O11866	O	0.031806	0.947065	0.364194
	C11867	C	0.201614	0.800644	0.916262
	O11868	O	0.210115	0.813307	0.917567
	O11869	O	0.193122	0.787953	0.914984
	C11870	C	0.056481	0.923969	0.020473
	O11871	O	0.081611	0.901432	0.047580
	O11872	O	0.031309	0.946512	-0.006661
	C11873	C	0.415244	0.022533	0.382764
	O11874	O	0.406801	0.012056	0.378604
	O11875	O	0.423688	0.033010	0.386924
	C11876	C	0.974612	0.327543	0.623765
	O11877	O	0.979694	0.337542	0.615038
	O11878	O	0.969566	0.317527	0.632520
	C11879	C	0.500760	0.170430	0.070555
	O11880	O	0.468175	0.184098	0.043964
	O11881	O	0.533360	0.156745	0.097173
	C11882	C	0.102922	0.546424	0.264384
	O11883	O	0.102647	0.533367	0.265852
	O11884	O	0.103178	0.559510	0.262888
	C11885	C	0.499119	0.921384	0.365173
	O11886	O	0.483066	0.934679	0.354324
	O11887	O	0.515151	0.908093	0.375994
	C11888	C	0.397260	0.018398	0.658431
	O11889	O	0.372542	0.039303	0.628143
	O11890	O	0.421995	-0.002495	0.688719
	C11891	C	0.796897	0.924452	0.400165
	O11892	O	0.810477	0.934323	0.400083
	O11893	O	0.783312	0.914593	0.400246
	C11894	C	0.276590	0.461222	0.391818
	O11895	O	0.288164	0.457627	0.408756
	O11896	O	0.264991	0.464834	0.374852
	C11897	C	0.685453	0.300024	0.719742
	O11898	O	0.673918	0.287607	0.719524
	O11899	O	0.696973	0.312458	0.719932
	C11900	C	0.493016	0.719260	0.533335
	O11901	O	0.493809	0.733255	0.520529
	O11902	O	0.492198	0.705280	0.546114
	C11903	C	0.256479	0.300169	0.606935
	O11904	O	0.227436	0.317268	0.575859
	O11905	O	0.285563	0.283064	0.638039
	C11906	C	0.190727	0.459235	0.145378
	O11907	O	0.186681	0.465910	0.131132
	O11908	O	0.194769	0.452572	0.159625
	C11909	C	0.394813	0.593076	0.220691
	O11910	O	0.425972	0.574004	0.249702
	O11911	O	0.363664	0.612149	0.191681
	C11912	C	0.480718	0.193161	0.475559
	O11913	O	0.488566	0.172470	0.494537
	O11914	O	0.472877	0.213864	0.456581
	C11915	C	0.756673	0.740130	0.616016
	O11916	O	0.736645	0.755651	0.588936
	O11917	O	0.776695	0.724597	0.643096
	C11918	C	0.305589	0.423965	0.155901
	O11919	O	0.288970	0.420986	0.152910
	O11920	O	0.322207	0.426944	0.158891
	C11921	C	0.063826	0.810490	0.652205
	O11922	O	0.057944	0.804525	0.659219
	O11923	O	0.069675	0.816459	0.645163
	C11924	C	0.469498	0.406053	0.254297
	O11925	O	0.489636	0.394524	0.279773
	O11926	O	0.449396	0.417565	0.228848
	C11927	C	0.407429	0.103139	0.328577
	O11928	O	0.440129	0.090864	0.356581
	O11929	O	0.374739	0.115413	0.300572
	C11930	C	0.601496	0.893275	0.053807
	O11931	O	0.606067	0.884185	0.069413
	O11932	O	0.596921	0.902377	0.038200
	C11933	C	0.237422	0.824336	0.229609
	O11934	O	0.215866	0.846266	0.200980
	O11935	O	0.258972	0.802395	0.258239
	C11936	C	0.373423	0.024133	0.888502
	O11937	O	0.382432	0.003831	0.908867
	O11938	O	0.364398	0.044424	0.868138
	C11939	C	0.411528	0.096615	0.702694
	O11940	O	0.383186	0.110581	0.673031
	O11941	O	0.439863	0.082637	0.732357
	C11942	C	0.307992	0.932680	0.912293
	O11943	O	0.319076	0.910670	0.933119
	O11944	O	0.296881	0.954707	0.891439
	C11945	C	0.844210	0.500393	0.679910
	O11946	O	0.827690	0.514753	0.655087
	O11947	O	0.860746	0.486016	0.704761
	C11948	C	0.784140	0.187298	0.826213
	O11949	O	0.816325	0.176403	0.851009
	O11950	O	0.751959	0.198182	0.801417
	C11951	C	0.800073	0.809338	0.638937
	O11952	O	0.793662	0.824660	0.632112
	O11953	O	0.806475	0.794016	0.645761
	C11954	C	0.513395	0.667161	0.451878
	O11955	O	0.509326	0.675425	0.452340
	O11956	O	0.517470	0.658909	0.451415
	C11957	C	0.790082	0.738813	0.266940
	O11958	O	0.791277	0.726253	0.281186
	O11959	O	0.788883	0.751385	0.252693
	C11960	C	0.730425	0.288675	0.494483
	O11961	O	0.720732	0.309281	0.479719
	O11962	O	0.740118	0.268070	0.509246
	C11963	C	0.997025	0.818631	0.267103
	O11964	O	1.006332	0.826478	0.262399
	O11965	O	0.987755	0.810767	0.271834
	C11966	C	0.377317	0.087518	0.853103
	O11967	O	0.360796	0.101408	0.828442
	O11968	O	0.393802	0.073645	0.877736
	C11969	C	0.275936	0.790692	0.151659
	O11970	O	0.286932	0.771039	0.165580
	O11971	O	0.264917	0.810350	0.137711
	C11972	C	0.851696	0.600368	0.185863
	O11973	O	0.822031	0.617570	0.160795
	O11974	O	0.881329	0.583171	0.210903
	C11975	C	0.892327	0.543984	0.496141
	O11976	O	0.881466	0.535535	0.499485
	O11977	O	0.903177	0.552434	0.492797
	C11978	C	0.340833	0.247418	0.780835
	O11979	O	0.322449	0.246282	0.764576
	O11980	O	0.359243	0.248538	0.797121
	C11981	C	0.638313	0.106762	0.281241
	O11982	O	0.645734	0.099937	0.281812
	O11983	O	0.630898	0.113598	0.280670
	C11984	C	0.325906	0.090320	0.312209
	O11985	O	0.338997	0.068296	0.335047
	O11986	O	0.312808	0.112333	0.289370
	C11987	C	0.984877	0.424916	0.380752
	O11988	O	0.973045	0.427688	0.364194
	O11989	O	0.996708	0.422144	0.397310
	C11990	C	0.846868	0.443992	0.289044
	O11991	O	0.876060	0.430671	0.318544
	O11992	O	0.817702	0.457297	0.259571
	C11993	C	0.210795	0.951579	0.669524
	O11994	O	0.243794	0.938033	0.697501
	O11995	O	0.177822	0.965109	0.641574
	C11996	C	0.482124	0.675143	0.682493
	O11997	O	0.513233	0.662075	0.711938
	O11998	O	0.451012	0.688222	0.653048
	C11999	C	0.945803	0.304336	0.652205
	O12000	O	0.954395	0.287616	0.672596
	O12001	O	0.937210	0.321055	0.631813
	C12002	C	0.518574	0.648789	0.830101
	O12003	O	0.485724	0.664209	0.801580
	O12004	O	0.551457	0.633364	0.858649
	C12005	C	0.841383	0.235837	0.161529
	O12006	O	0.872753	0.218693	0.188663
	O12007	O	0.809987	0.252998	0.134367
	C12008	C	0.014907	0.444893	0.002583
	O12009	O	0.018851	0.440439	0.015715
	O12010	O	0.010986	0.449342	-0.010522
	C12011	C	0.487110	0.845880	0.124198
	O12012	O	0.475344	0.867839	0.106172
	O12013	O	0.498912	0.823904	0.142252
	C12014	C	0.399547	0.533531	0.753129
	O12015	O	0.375195	0.543177	0.738176
	O12016	O	0.423924	0.523868	0.768111
	C12017	C	0.926033	0.084279	0.865229
	O12018	O	0.904187	0.088556	0.843532
	O12019	O	0.947897	0.080013	0.886926
	C12020	C	0.747880	0.535872	0.951689
	O12021	O	0.723116	0.535530	0.934180
	O12022	O	0.772627	0.536202	0.969199
	C12023	C	0.187093	0.316050	0.959003
	O12024	O	0.213134	0.312616	0.973304
	O12025	O	0.161074	0.319479	0.944729
	C12026	C	0.729313	0.305316	0.576348
	O12027	O	0.745482	0.282870	0.597011
	O12028	O	0.713137	0.327749	0.555684
	C12029	C	0.554819	0.192419	0.588719
	O12030	O	0.565578	0.195567	0.586517
	O12031	O	0.544103	0.189267	0.590948
	C12032	C	0.821763	0.176669	0.498425
	O12033	O	0.837686	0.181419	0.510605
	O12034	O	0.805845	0.171909	0.486244
	C12035	C	0.115154	0.099587	0.362617
	O12036	O	0.104967	0.107551	0.344047
	O12037	O	0.125340	0.091624	0.381187
	C12038	C	0.258402	0.724167	0.126863
	O12039	O	0.227368	0.743242	0.095514
	O12040	O	0.289407	0.705119	0.158184
	C12041	C	0.161697	0.384125	0.719198
	O12042	O	0.139221	0.399423	0.702123
	O12043	O	0.184137	0.368843	0.736245
	C12044	C	0.316757	0.307610	0.894783
	O12045	O	0.317913	0.319888	0.894484
	O12046	O	0.315607	0.295343	0.895082
	C12047	C	0.223294	0.169036	0.244400
	O12048	O	0.250859	0.146963	0.273574
	O12049	O	0.195729	0.191110	0.215226
	C12050	C	0.737852	0.083066	0.790460
	O12051	O	0.766774	0.062949	0.817730
	O12052	O	0.708911	0.103212	0.763162
	C12053	C	0.707814	0.844084	0.525641
	O12054	O	0.724472	0.851476	0.528686
	O12055	O	0.691166	0.836691	0.522596
	C12056	C	0.745274	0.715451	0.505032
	O12057	O	0.732706	0.732496	0.481867
	O12058	O	0.757862	0.698378	0.528224
	C12059	C	0.172493	0.535559	0.786871
	O12060	O	0.155114	0.540873	0.766126
	O12061	O	0.189872	0.530246	0.807616
	C12062	C	0.223652	0.762902	0.506554
	O12063	O	0.201629	0.762142	0.497555
	O12064	O	0.245694	0.763633	0.515581
	C12065	C	0.468851	0.681453	0.294346
	O12066	O	0.450165	0.683420	0.275422
	O12067	O	0.487547	0.679485	0.313269
	C12068	C	0.248266	0.666225	0.010930
	O12069	O	0.269549	0.665544	0.019358
	O12070	O	0.226968	0.666923	0.002474
	C12071	C	0.874193	0.089184	0.491329
	O12072	O	0.883885	0.073755	0.512291
	O12073	O	0.864509	0.104586	0.470393
	C12074	C	0.394563	0.578962	0.123247
	O12075	O	0.392091	0.588919	0.108755
	O12076	O	0.397020	0.569021	0.137711
	C12077	C	0.101907	0.351042	0.800819
	O12078	O	0.126899	0.336230	0.829829
	O12079	O	0.076914	0.365854	0.771808
	C12080	C	0.407627	0.598425	0.074144
	O12081	O	0.440215	0.585077	0.103209
	O12082	O	0.375049	0.611772	0.045079
	C12083	C	0.413643	0.284593	0.489045
	O12084	O	0.389077	0.299387	0.460197
	O12085	O	0.438177	0.269803	0.517865
	C12086	C	0.166854	0.364350	0.856311
	O12087	O	0.183033	0.356353	0.863652
	O12088	O	0.150684	0.372319	0.848997
	C12089	C	0.487509	0.799439	0.290648
	O12090	O	0.516952	0.779043	0.318952
	O12091	O	0.458092	0.819819	0.262372
	C12092	C	0.963805	0.277417	0.742852
	O12093	O	0.933723	0.294106	0.717730
	O12094	O	0.993910	0.260723	0.768002
	C12095	C	0.498806	0.162855	0.939862
	O12096	O	0.521315	0.159008	0.961423
	O12097	O	0.476322	0.166686	0.918329
	C12098	C	0.137268	0.382603	0.945599
	O12099	O	0.169928	0.365918	0.975017
	O12100	O	0.104590	0.399316	0.916153
	C12101	C	0.821021	0.315164	0.284096
	O12102	O	0.799221	0.318076	0.274498
	O12103	O	0.842847	0.312235	0.293721
	C12104	C	0.066952	0.188159	0.850900
	O12105	O	0.044780	0.184063	0.838829
	O12106	O	0.089108	0.192271	0.862945
	C12107	C	0.064258	0.211771	0.520693
	O12108	O	0.053144	0.229674	0.508757
	O12109	O	0.075408	0.193852	0.532656
	C12110	C	0.666739	0.328060	0.746822
	O12111	O	0.687926	0.329737	0.754788
	O12112	O	0.645527	0.326400	0.738828
	C12113	C	0.753114	0.786300	0.243693
	O12114	O	0.778200	0.767267	0.274036
	O12115	O	0.728047	0.805306	0.213378
	C12116	C	0.814295	0.662051	0.983799
	O12117	O	0.817709	0.670250	0.974174
	O12118	O	0.810892	0.653852	0.993424
	C12119	C	0.774989	0.929113	0.533417
	O12120	O	0.791517	0.914002	0.546032
	O12121	O	0.758451	0.944224	0.520801
	C12122	C	0.341554	0.308416	0.561965
	O12123	O	0.367110	0.304380	0.575804
	O12124	O	0.316007	0.312451	0.548126
	C12125	C	0.117822	0.208686	0.576130
	O12126	O	0.105834	0.228696	0.561258
	O12127	O	0.129836	0.188660	0.591030
	C12128	C	0.100074	0.892346	0.671155
	O12129	O	0.089471	0.888262	0.660117
	O12130	O	0.110687	0.896430	0.682194
	C12131	C	0.473676	0.785599	0.626484
	O12132	O	0.464282	0.777206	0.631188
	O12133	O	0.483044	0.794008	0.621753
	C12134	C	0.757274	0.798883	0.103453
	O12135	O	0.733993	0.821072	0.074089
	O12136	O	0.780551	0.776705	0.132817
	C12137	C	0.321929	0.778819	0.882086
	O12138	O	0.352051	0.767812	0.903701
	O12139	O	0.291790	0.789816	0.860471
	C12140	C	0.181914	0.320522	0.080751
	O12141	O	0.163878	0.314913	0.076373
	O12142	O	0.199985	0.326114	0.085155
	C12143	C	0.250787	0.236651	0.127026
	O12144	O	0.226595	0.259286	0.097635
	O12145	O	0.274989	0.214015	0.156417
	C12146	C	0.637543	0.032497	0.019522
	O12147	O	0.635225	0.040084	0.006009
	O12148	O	0.639872	0.024909	0.033034
	C12149	C	0.061486	0.320763	0.894783
	O12150	O	0.061209	0.339434	0.884315
	O12151	O	0.061745	0.302080	0.905251
	C12152	C	0.437823	0.015733	0.890215
	O12153	O	0.426496	0.037632	0.872461
	O12154	O	0.449157	-0.006154	0.907970
	C12155	C	0.504850	0.318096	0.320556
	O12156	O	0.523137	0.310875	0.329066
	O12157	O	0.486538	0.325333	0.312019
	C12158	C	0.048211	0.930580	0.518952
	O12159	O	0.055445	0.918924	0.522949
	O12160	O	0.041019	0.942230	0.514983
	C12161	C	0.879370	0.287350	0.194590
	O12162	O	0.900785	0.264031	0.220555
	O12163	O	0.857954	0.310668	0.168625
	C12164	C	0.335775	0.055331	0.092197
	O12165	O	0.327064	0.056017	0.094318
	O12166	O	0.344469	0.054633	0.090076
	C12167	C	0.061615	0.852985	0.652558
	O12168	O	0.091520	0.834009	0.684124
	O12169	O	0.031710	0.871960	0.620992
	C12170	C	0.822838	0.918677	0.045867
	O12171	O	0.849153	0.917808	0.060821
	O12172	O	0.796493	0.919575	0.030886
	C12173	C	0.772647	0.682179	0.828606
	O12174	O	0.785863	0.685432	0.841357
	O12175	O	0.759464	0.678920	0.815881
	C12176	C	0.944259	0.984607	0.442742
	O12177	O	0.937848	0.979426	0.449077
	O12178	O	0.950705	0.989771	0.436434
	C12179	C	0.557561	0.375409	0.754652
	O12180	O	0.535663	0.396735	0.725696
	O12181	O	0.579458	0.354082	0.783608
	C12182	C	0.534044	0.940639	0.344047
	O12183	O	0.517292	0.953244	0.333226
	O12184	O	0.550807	0.928033	0.354868
	C12185	C	0.612974	0.761264	0.832385
	O12186	O	0.611937	0.773621	0.818301
	O12187	O	0.613986	0.748924	0.846441
	C12188	C	0.067075	0.061499	0.269822
	O12189	O	0.041620	0.066168	0.246983
	O12190	O	0.092505	0.056847	0.292633
	C12191	C	0.819425	0.815661	0.524309
	O12192	O	0.818821	0.806422	0.522106
	O12193	O	0.819993	0.824916	0.526484
	C12194	C	0.060701	0.595814	0.624744
	O12195	O	0.062649	0.578411	0.639643
	O12196	O	0.058749	0.613228	0.609845
	C12197	C	0.234561	0.673258	0.748997
	O12198	O	0.259203	0.669351	0.761803
	O12199	O	0.209941	0.677161	0.736218
	C12200	C	0.253999	0.307901	0.725832
	O12201	O	0.283218	0.295355	0.754897
	O12202	O	0.224780	0.320448	0.696767
	C12203	C	0.374312	0.091021	0.610089
	O12204	O	0.374344	0.100464	0.597555
	O12205	O	0.374255	0.081595	0.622596
	C12206	C	0.749968	0.301045	0.261991
	O12207	O	0.774005	0.294641	0.285890
	O12208	O	0.725928	0.307461	0.238092
	C12209	C	0.580975	0.868239	0.027733
	O12210	O	0.594424	0.849722	0.051659
	O12211	O	0.567549	0.886751	0.003834
	C12212	C	0.613954	0.748993	0.694075
	O12213	O	0.616381	0.766239	0.687006
	O12214	O	0.611491	0.731762	0.701117
	C12215	C	0.240814	0.962027	0.230017
	O12216	O	0.235303	0.981018	0.219196
	O12217	O	0.246300	0.943054	0.240811
	C12218	C	0.282582	0.031391	0.417837
	O12219	O	0.313745	0.011790	0.448044
	O12220	O	0.251445	0.050976	0.387658
	C12221	C	0.658312	0.357824	0.352720
	O12222	O	0.644607	0.355025	0.352340
	O12223	O	0.672016	0.360623	0.353101
	C12224	C	0.484000	0.822011	0.110985
	O12225	O	0.470695	0.844556	0.091055
	O12226	O	0.497312	0.799477	0.130914
	C12227	C	0.097882	0.544908	0.802069
	O12228	O	0.081710	0.544783	0.785674
	O12229	O	0.114043	0.545033	0.818464
	C12230	C	0.821511	0.150675	0.750302
	O12231	O	0.839461	0.153922	0.764440
	O12232	O	0.803564	0.147415	0.736164
	C12233	C	0.324843	0.287294	0.505956
	O12234	O	0.293962	0.294702	0.483960
	O12235	O	0.355718	0.279875	0.527952
	C12236	C	0.494190	0.750352	0.147200
	O12237	O	0.520004	0.733335	0.168407
	O12238	O	0.468394	0.767381	0.125993
	C12239	C	0.063419	0.653352	0.300382
	O12240	O	0.076368	0.646146	0.320094
	O12241	O	0.050459	0.660558	0.280670
	C12242	C	0.815649	0.321507	0.639426
	O12243	O	0.803023	0.328673	0.635157
	O12244	O	0.828270	0.314331	0.643695
	C12245	C	0.600614	0.683601	0.618300
	O12246	O	0.628741	0.680608	0.638855
	O12247	O	0.572520	0.686588	0.597773
	C12248	C	0.362074	0.209112	0.553972
	O12249	O	0.389401	0.188766	0.579801
	O12250	O	0.334763	0.229469	0.528142
	C12251	C	0.785737	0.804777	0.010876
	O12252	O	0.782055	0.815265	0.009815
	O12253	O	0.789456	0.794273	0.011963
	C12254	C	0.010509	0.193543	0.046574
	O12255	O	0.022525	0.182606	0.067537
	O12256	O	-0.001507	0.204479	0.025612
	C12257	C	0.267285	0.290131	0.519279
	O12258	O	0.287937	0.268006	0.542036
	O12259	O	0.246613	0.312286	0.496495
	C12260	C	0.967214	0.739429	0.015715
	O12261	O	0.939712	0.741287	-0.003371
	O12262	O	0.994674	0.737577	0.034774
	C12263	C	0.471734	0.338412	0.241436
	O12264	O	0.481579	0.345606	0.237331
	O12265	O	0.461899	0.331218	0.245542
	C12266	C	0.428041	0.569232	0.852994
	O12267	O	0.401041	0.576544	0.827790
	O12268	O	0.455032	0.561948	0.878171
	C12269	C	0.301721	0.677766	0.471644
	O12270	O	0.315564	0.683651	0.471454
	O12271	O	0.287911	0.671876	0.471861
	C12272	C	0.058846	0.804462	0.903891
	O12273	O	0.050667	0.821494	0.894402
	O12274	O	0.067029	0.787418	0.913380
	C12275	C	0.874357	0.721975	0.062371
	O12276	O	0.844815	0.741003	0.030832
	O12277	O	0.903906	0.702958	0.093910
	C12278	C	0.715985	0.301457	0.986219
	O12279	O	0.689352	0.303692	0.971156
	O12280	O	0.742582	0.299237	1.001254
	C12281	C	0.468393	0.796209	0.153318
	O12282	O	0.440968	0.802306	0.129065
	O12283	O	0.495791	0.790130	0.177543
	C12284	C	0.648011	0.540249	0.777137
	O12285	O	0.678818	0.529877	0.804761
	O12286	O	0.617221	0.550604	0.749541
	C12287	C	0.362714	0.600908	0.694266
	O12288	O	0.389639	0.594087	0.719062
	O12289	O	0.335792	0.607718	0.669470
	C12290	C	0.705986	0.962589	0.114764
	O12291	O	0.688694	0.956042	0.111148
	O12292	O	0.723235	0.969141	0.118353
	C12293	C	0.082627	0.853063	0.543857
	O12294	O	0.053687	0.873778	0.512563
	O12295	O	0.111573	0.832361	0.575152
	C12296	C	0.100859	0.532026	0.301605
	O12297	O	0.132632	0.523265	0.325830
	O12298	O	0.069071	0.540804	0.277353
	C12299	C	0.567066	0.657196	0.727436
	O12300	O	0.593441	0.635351	0.754435
	O12301	O	0.540684	0.679029	0.700438
	C12302	C	0.224236	0.165424	0.871945
	O12303	O	0.241458	0.142826	0.897584
	O12304	O	0.207025	0.188023	0.846305
	C12305	C	0.245614	0.303323	0.341546
	O12306	O	0.224232	0.325039	0.312943
	O12307	O	0.267022	0.281591	0.370175
	C12308	C	0.142111	0.002549	0.458104
	O12309	O	0.150362	-0.005785	0.460225
	O12310	O	0.133841	0.010911	0.455956
	C12311	C	0.051409	0.304241	0.538148
	O12312	O	0.062706	0.284248	0.552667
	O12313	O	0.040102	0.324233	0.523629
	C12314	C	0.740819	0.753589	0.885077
	O12315	O	0.716553	0.752787	0.873086
	O12316	O	0.765100	0.754374	0.897094
	C12317	C	0.726923	0.238004	0.604733
	O12318	O	0.712878	0.251922	0.581459
	O12319	O	0.740936	0.224090	0.627979
	C12320	C	0.339928	0.015104	0.222459
	O12321	O	0.344635	0.015148	0.233497
	O12322	O	0.335192	0.015088	0.211393
	C12323	C	0.965256	0.864482	0.839400
	O12324	O	0.971495	0.863832	0.851716
	O12325	O	0.958998	0.865161	0.827056
	C12326	C	0.906336	0.095368	0.208728
	O12327	O	0.935071	0.075757	0.240213
	O12328	O	0.877606	0.114990	0.177244
	C12329	C	0.854624	0.101611	0.216287
	O12330	O	0.842695	0.094128	0.218516
	O12331	O	0.866536	0.109082	0.214057
	C12332	C	0.415225	0.083162	0.851634
	O12333	O	0.437718	0.069896	0.878959
	O12334	O	0.392699	0.096434	0.824283
	C12335	C	0.590554	0.372032	0.055791
	O12336	O	0.557682	0.387195	0.027542
	O12337	O	0.623396	0.356898	0.084013
	C12338	C	0.390718	0.556786	0.108429
	O12339	O	0.408470	0.558557	0.112779
	O12340	O	0.372946	0.555044	0.104052
	C12341	C	0.475379	0.697363	0.158647
	O12342	O	0.495703	0.684373	0.184884
	O12343	O	0.455039	0.710340	0.132409
	C12344	C	0.826542	0.084660	0.600220
	O12345	O	0.854776	0.078861	0.617729
	O12346	O	0.798339	0.090454	0.582737
	C12347	C	0.069562	0.343067	0.653863
	O12348	O	0.084644	0.338015	0.673412
	O12349	O	0.054450	0.348147	0.634287
	C12350	C	0.232331	0.935381	0.886137
	O12351	O	0.219652	0.931335	0.887007
	O12352	O	0.245030	0.939398	0.885294
	C12353	C	0.793339	0.570445	0.327244
	O12354	O	0.772460	0.567019	0.319577
	O12355	O	0.814175	0.573875	0.334884
	C12356	C	0.260820	0.241587	0.772216
	O12357	O	0.275096	0.228722	0.795245
	O12358	O	0.246564	0.254423	0.749214
	C12359	C	0.551001	0.938267	0.773385
	O12360	O	0.551680	0.933956	0.784369
	O12361	O	0.550297	0.942594	0.762374
	C12362	C	0.356504	0.595566	0.843940
	O12363	O	0.360726	0.587522	0.858894
	O12364	O	0.352291	0.603610	0.828986
	C12365	C	0.583310	0.733429	0.080125
	O12366	O	0.596544	0.719110	0.103046
	O12367	O	0.570101	0.747731	0.057232
	C12368	C	0.302005	0.419439	0.782330
	O12369	O	0.314438	0.424306	0.781025
	O12370	O	0.289607	0.414555	0.783663
	C12371	C	0.075358	0.423171	0.910036
	O12372	O	0.104933	0.403859	0.937089
	O12373	O	0.045757	0.442500	0.882956
	C12374	C	0.390689	0.572157	0.633825
	O12375	O	0.384750	0.584867	0.616098
	O12376	O	0.396624	0.559457	0.651552
	C12377	C	0.416561	0.588456	0.464303
	O12378	O	0.442644	0.581150	0.489344
	O12379	O	0.390478	0.595762	0.439262
	C12380	C	0.483712	0.711084	0.354352
	O12381	O	0.490440	0.691741	0.366097
	O12382	O	0.476984	0.730426	0.342606
	C12383	C	0.201981	0.193309	0.343068
	O12384	O	0.222899	0.184745	0.354460
	O12385	O	0.181043	0.201901	0.331649
	C12386	C	0.457553	0.368220	0.599785
	O12387	O	0.461475	0.384571	0.591111
	O12388	O	0.453664	0.351863	0.608485
	C12389	C	0.923456	0.573188	0.355793
	O12390	O	0.892284	0.587058	0.325885
	O12391	O	0.954593	0.559333	0.385673
	C12392	C	0.400671	0.785785	0.226048
	O12393	O	0.409211	0.780349	0.226455
	O12394	O	0.392137	0.791234	0.225640
	C12395	C	0.058927	0.926113	0.898861
	O12396	O	0.041830	0.945579	0.881787
	O12397	O	0.075997	0.906664	0.915909
	C12398	C	0.987967	0.672220	0.408240
	O12399	O	0.999561	0.667450	0.410360
	O12400	O	0.976394	0.676985	0.406146
	C12401	C	0.380594	0.061029	0.975860
	O12402	O	0.385729	0.040468	0.990379
	O12403	O	0.375467	0.081563	0.961368
	C12404	C	0.748849	0.469226	0.939427
	O12405	O	0.739355	0.455766	0.942554
	O12406	O	0.758375	0.482682	0.936328
	C12407	C	0.128046	0.184826	0.508702
	O12408	O	0.134814	0.177903	0.508920
	O12409	O	0.121320	0.191745	0.508512
	C12410	C	0.990189	0.290964	0.370991
	O12411	O	0.973690	0.314163	0.347881
	O12412	O	1.006723	0.267748	0.394129
	C12413	C	0.756127	0.452865	0.992907
	O12414	O	0.755345	0.434707	1.002070
	O12415	O	0.756917	0.471034	0.983745
	C12416	C	0.900410	0.084894	0.625940
	O12417	O	0.918030	0.068376	0.652042
	O12418	O	0.882757	0.101416	0.599812
	C12419	C	0.541486	0.438403	0.398887
	O12420	O	0.531607	0.442153	0.398560
	O12421	O	0.551339	0.434669	0.399186
	C12422	C	0.714175	0.338650	0.159381
	O12423	O	0.743129	0.331500	0.178141
	O12424	O	0.685204	0.345789	0.140620
	C12425	C	0.815796	0.059770	0.868464
	O12426	O	0.822672	0.038629	0.885104
	O12427	O	0.808947	0.080894	0.851852
	C12428	C	0.727361	0.679730	0.489942
	O12429	O	0.704943	0.686934	0.477979
	O12430	O	0.749779	0.672527	0.501905
	C12431	C	0.055851	0.763241	0.492226
	O12432	O	0.052181	0.783125	0.479665
	O12433	O	0.059525	0.743345	0.504787
	C12434	C	0.146669	0.059020	0.878307
	O12435	O	0.164659	0.046885	0.889672
	O12436	O	0.128688	0.071154	0.866942
	C12437	C	0.001105	0.283956	0.479039
	O12438	O	-0.004222	0.268097	0.483689
	O12439	O	0.006407	0.299832	0.474363
	C12440	C	0.072238	0.730256	0.693233
	O12441	O	0.056755	0.739987	0.670911
	O12442	O	0.087704	0.720514	0.715555
	C12443	C	0.855882	0.006719	0.193204
	O12444	O	0.863815	-0.011949	0.204487
	O12445	O	0.847938	0.025386	0.181920
	C12446	C	0.090211	0.043523	0.668926
	O12447	O	0.100788	0.049784	0.678061
	O12448	O	0.079640	0.037274	0.659790
	C12449	C	0.326969	0.651964	0.762618
	O12450	O	0.312368	0.641853	0.758105
	O12451	O	0.341563	0.662064	0.767132
	C12452	C	0.771955	0.285329	0.748426
	O12453	O	0.778056	0.265357	0.766180
	O12454	O	0.765865	0.305300	0.730672
	C12455	C	0.525236	0.943905	0.391355
	O12456	O	0.547706	0.941250	0.401524
	O12457	O	0.502783	0.946571	0.381187
	C12458	C	0.723339	0.713346	0.230235
	O12459	O	0.731318	0.724584	0.233389
	O12460	O	0.715361	0.702107	0.227081
	C12461	C	0.406088	0.596752	0.579747
	O12462	O	0.374989	0.610777	0.549757
	O12463	O	0.437190	0.582716	0.609736
	C12464	C	0.216962	0.438584	0.627952
	O12465	O	0.229318	0.443282	0.626620
	O12466	O	0.204623	0.433898	0.629285
	C12467	C	0.674970	0.822670	0.631813
	O12468	O	0.680908	0.837006	0.624146
	O12469	O	0.669033	0.808334	0.639480
	C12470	C	0.747726	0.816560	0.249267
	O12471	O	0.770379	0.810375	0.272595
	O12472	O	0.725064	0.822773	0.225912
	C12473	C	0.408173	0.090273	0.474254
	O12474	O	0.400912	0.086888	0.464167
	O12475	O	0.415415	0.093686	0.484314
	C12476	C	0.834429	0.175250	0.382247
	O12477	O	0.838170	0.160855	0.398751
	O12478	O	0.830651	0.189661	0.365716
	C12479	C	0.637817	0.116922	0.997230
	O12480	O	0.614640	0.137256	0.967595
	O12481	O	0.660988	0.096576	1.026866
	C12482	C	0.363125	0.212998	0.929204
	O12483	O	0.334054	0.234371	0.899025
	O12484	O	0.392191	0.191637	0.959384
	C12485	C	0.174814	0.815077	0.145949
	O12486	O	0.169872	0.827502	0.142578
	O12487	O	0.179756	0.802652	0.149321
	C12488	C	0.542470	0.823160	0.892499
	O12489	O	0.542144	0.841812	0.880917
	O12490	O	0.542797	0.804509	0.904082
	C12491	C	0.851054	0.901585	0.418272
	O12492	O	0.883516	0.887863	0.444645
	O12493	O	0.818587	0.915295	0.391899
	C12494	C	0.309663	0.807818	0.415825
	O12495	O	0.306468	0.822787	0.399675
	O12496	O	0.312832	0.792865	0.431948
	C12497	C	0.918110	0.589216	0.966969
	O12498	O	0.947330	0.577751	0.995382
	O12499	O	0.888884	0.600670	0.938557
	C12500	C	0.588958	0.919796	0.539127
	O12501	O	0.575410	0.938676	0.515119
	O12502	O	0.602511	0.900928	0.563134
	C12503	C	0.424966	0.843655	0.369849
	O12504	O	0.424020	0.850723	0.357478
	O12505	O	0.425901	0.836587	0.382220
	C12506	C	0.693914	0.214884	0.625533
	O12507	O	0.721690	0.200919	0.655060
	O12508	O	0.666145	0.228860	0.596005
	C12509	C	0.139111	0.186175	0.198342
	O12510	O	0.158628	0.167075	0.226020
	O12511	O	0.119637	0.205269	0.170691
	C12512	C	0.148027	0.803359	0.691683
	O12513	O	0.166323	0.780004	0.716751
	O12514	O	0.129757	0.826697	0.666642
	C12515	C	0.410463	0.785494	0.099864
	O12516	O	0.424126	0.767757	0.123845
	O12517	O	0.396800	0.803231	0.075884
	C12518	C	0.751816	0.828664	0.734641
	O12519	O	0.757020	0.811711	0.742662
	O12520	O	0.746647	0.845601	0.726648
	C12521	C	0.805944	0.813667	0.263786
	O12522	O	0.807896	0.798974	0.267891
	O12523	O	0.803969	0.828366	0.259653
	C12524	C	0.291793	0.428657	0.392987
	O12525	O	0.277300	0.420105	0.392389
	O12526	O	0.306286	0.437210	0.393585
	C12527	C	0.716402	0.468292	0.838285
	O12528	O	0.698475	0.491425	0.812836
	O12529	O	0.734341	0.445160	0.863733
	C12530	C	0.514808	0.334871	0.628197
	O12531	O	0.483001	0.353442	0.598425
	O12532	O	0.546646	0.316295	0.657996
	C12533	C	0.876816	0.620238	0.668273
	O12534	O	0.888946	0.597803	0.687849
	O12535	O	0.864708	0.642669	0.648725
	C12536	C	0.014698	0.147620	0.699948
	O12537	O	0.041712	0.128308	0.730998
	O12538	O	-0.012306	0.166932	0.668899
	C12539	C	0.075578	0.852364	0.780264
	O12540	O	0.047667	0.864616	0.751607
	O12541	O	0.103525	0.840095	0.808948
	C12542	C	0.060742	0.846036	0.908133
	O12543	O	0.032447	0.867839	0.877953
	O12544	O	0.089012	0.824251	0.938285
	C12545	C	0.819844	0.294037	0.626484
	O12546	O	0.846064	0.281219	0.645000
	O12547	O	0.793598	0.306872	0.607941
	C12548	C	0.657633	0.530397	0.286923
	O12549	O	0.663109	0.530722	0.298207
	O12550	O	0.652164	0.530084	0.275640
	C12551	C	0.742632	0.720856	0.661231
	O12552	O	0.729140	0.728412	0.641057
	O12553	O	0.756121	0.713312	0.681405
	C12554	C	0.768821	0.730325	0.129092
	O12555	O	0.742230	0.751184	0.098152
	O12556	O	0.795418	0.709477	0.160033
	C12557	C	0.620158	0.813543	0.299104
	O12558	O	0.645605	0.795569	0.329365
	O12559	O	0.594711	0.831517	0.268843
	C12560	C	0.273785	0.803422	0.334041
	O12561	O	0.300696	0.782494	0.365037
	O12562	O	0.246858	0.824366	0.303019
	C12563	C	0.152413	0.635076	0.522215
	O12564	O	0.128578	0.646195	0.506881
	O12565	O	0.176244	0.623969	0.537550
	C12566	C	0.423935	0.025527	0.144835
	O12567	O	0.432262	0.004014	0.163024
	O12568	O	0.415623	0.047023	0.126673
	C12569	C	0.898350	0.609380	0.565772
	O12570	O	0.929466	0.592721	0.592145
	O12571	O	0.867214	0.626067	0.539371
	C12572	C	0.369625	0.090157	0.978307
	O12573	O	0.362004	0.078522	0.984832
	O12574	O	0.377237	0.101791	0.971782
	C12575	C	0.473407	0.427031	0.493776
	O12576	O	0.491540	0.420136	0.515826
	O12577	O	0.455248	0.433943	0.471698
	C12578	C	0.375101	0.589998	0.482819
	O12579	O	0.360256	0.609720	0.457941
	O12580	O	0.389956	0.570276	0.507696
	C12581	C	0.271336	0.725869	0.270746
	O12582	O	0.250785	0.746776	0.242442
	O12583	O	0.291862	0.704978	0.299022
	C12584	C	0.481465	0.171481	0.650981
	O12585	O	0.501612	0.163227	0.661558
	O12586	O	0.461329	0.179736	0.640405
	C12587	C	0.001761	0.671460	0.566832
	O12588	O	0.033137	0.653551	0.594728
	O12589	O	-0.029589	0.689351	0.538963
	C12590	C	0.569620	0.862148	0.263650
	O12591	O	0.594693	0.855396	0.288065
	O12592	O	0.544547	0.868900	0.239234
	C12593	C	0.718171	0.668983	0.739019
	O12594	O	0.725954	0.675434	0.733363
	O12595	O	0.710396	0.662504	0.744701
	C12596	C	0.738725	0.458818	0.231648
	O12597	O	0.740235	0.476433	0.223954
	O12598	O	0.737209	0.441192	0.239343
	C12599	C	0.341743	0.540883	0.598996
	O12600	O	0.350760	0.537717	0.598398
	O12601	O	0.332693	0.544054	0.599567
	C12602	C	0.343843	0.058378	0.009244
	O12603	O	0.361633	0.066252	0.016449
	O12604	O	0.326068	0.050487	0.002066
	C12605	C	0.926852	0.080405	0.493857
	O12606	O	0.931192	0.086076	0.500790
	O12607	O	0.922501	0.074735	0.486924
	C12608	C	0.001036	0.841027	0.492389
	O12609	O	-0.030288	0.860035	0.461285
	O12610	O	0.032387	0.822002	0.523520
	C12611	C	0.681605	0.456918	0.880699
	O12612	O	0.668065	0.465182	0.875098
	O12613	O	0.695155	0.448654	0.886300
	C12614	C	0.253112	0.075599	0.049647
	O12615	O	0.283808	0.061226	0.079826
	O12616	O	0.222416	0.089971	0.019467
	C12617	C	0.378068	0.072045	0.508893
	O12618	O	0.408831	0.057597	0.533172
	O12619	O	0.347297	0.086521	0.484586
	C12620	C	0.685704	0.100920	0.888992
	O12621	O	0.715373	0.080222	0.920069
	O12622	O	0.656045	0.121618	0.857915
	C12623	C	0.239342	0.074227	0.426293
	O12624	O	0.217636	0.096483	0.397718
	O12625	O	0.261049	0.051971	0.454868
	C12626	C	0.970091	0.194786	0.909329
	O12627	O	0.950979	0.199111	0.888530
	O12628	O	0.989213	0.190461	0.930129
	C12629	C	0.767909	0.313876	0.380942
	O12630	O	0.747687	0.317214	0.360469
	O12631	O	0.788127	0.310550	0.401415
	C12632	C	0.149214	0.581774	0.306744
	O12633	O	0.123953	0.580950	0.292687
	O12634	O	0.174484	0.582599	0.320801
	C12635	C	0.331263	0.919960	0.035971
	O12636	O	0.350741	0.925262	0.047662
	O12637	O	0.311795	0.914658	0.024280
	C12638	C	0.404674	0.064774	0.392008
	O12639	O	0.412064	0.049643	0.411312
	O12640	O	0.397259	0.079921	0.372677
	C12641	C	0.721459	0.957595	0.358131
	O12642	O	0.730383	0.962769	0.367565
	O12643	O	0.712493	0.952426	0.348669
	C12644	C	0.134025	0.387376	0.322377
	O12645	O	0.106146	0.392982	0.305357
	O12646	O	0.161914	0.381769	0.339398
	C12647	C	0.664439	0.458387	0.621645
	O12648	O	0.674350	0.448052	0.626239
	O12649	O	0.654544	0.468733	0.617050
	C12650	C	0.548895	0.097336	0.243258
	O12651	O	0.556163	0.101408	0.237983
	O12652	O	0.541626	0.093263	0.248533
	C12653	C	0.872760	0.434656	0.051251
	O12654	O	0.856516	0.438924	0.031675
	O12655	O	0.889001	0.430400	0.070827
	C12656	C	0.271822	0.219066	0.894212
	O12657	O	0.279042	0.210123	0.911450
	O12658	O	0.264594	0.227997	0.876974
	C12659	C	0.230712	0.235422	0.018815
	O12660	O	0.219518	0.236171	0.003888
	O12661	O	0.241873	0.234678	0.033714
	C12662	C	0.800812	0.675255	0.483335
	O12663	O	0.813393	0.686103	0.487305
	O12664	O	0.788225	0.664395	0.479366
	C12665	C	0.285099	0.191964	0.564167
	O12666	O	0.299150	0.194951	0.564793
	O12667	O	0.271059	0.188977	0.563542
	C12668	C	0.124922	0.293252	0.183987
	O12669	O	0.148497	0.284163	0.209517
	O12670	O	0.101347	0.302341	0.158456
	C12671	C	0.207423	0.210268	0.267375
	O12672	O	0.178769	0.230654	0.235972
	O12673	O	0.236058	0.189911	0.298750
	C12674	C	0.687081	0.824693	0.079255
	O12675	O	0.671029	0.816999	0.076917
	O12676	O	0.703134	0.832387	0.081594
	C12677	C	0.554963	0.437849	0.019522
	O12678	O	0.576888	0.417152	0.041245
	O12679	O	0.533054	0.458531	-0.002175
	C12680	C	0.894011	0.538335	0.878361
	O12681	O	0.898020	0.518966	0.894321
	O12682	O	0.889987	0.557722	0.862374
	C12683	C	0.304639	0.418065	0.533390
	O12684	O	0.293822	0.406519	0.536326
	O12685	O	0.315467	0.429611	0.530453
	C12686	C	0.762830	0.302189	0.854734
	O12687	O	0.794280	0.283976	0.886001
	O12688	O	0.731354	0.320419	0.823440
	C12689	C	0.577930	0.188933	0.973114
	O12690	O	0.553141	0.187981	0.960091
	O12691	O	0.602712	0.189874	0.986137
	C12692	C	0.077758	0.820628	0.526511
	O12693	O	0.087466	0.799704	0.541818
	O12694	O	0.068033	0.841540	0.511204
	C12695	C	0.739443	0.785103	0.971891
	O12696	O	0.757006	0.764143	0.998427
	O12697	O	0.721880	0.806064	0.945354
	C12698	C	0.078954	0.041157	0.031838
	O12699	O	0.108133	0.028639	0.060876
	O12700	O	0.049742	0.053680	0.002773
	C12701	C	0.302193	0.312858	0.264792
	O12702	O	0.287210	0.302768	0.261257
	O12703	O	0.317165	0.322949	0.268326
	C12704	C	0.498197	0.388891	0.157532
	O12705	O	0.489841	0.406944	0.146819
	O12706	O	0.506545	0.370865	0.168217
	C12707	C	0.726029	0.464130	0.728768
	O12708	O	0.716165	0.484458	0.714385
	O12709	O	0.735871	0.443807	0.743124
	C12710	C	0.163162	0.713973	0.601389
	O12711	O	0.189489	0.713806	0.617920
	O12712	O	0.136824	0.714140	0.584858
	C12713	C	0.696875	0.962080	0.743967
	O12714	O	0.671218	0.961640	0.729258
	O12715	O	0.722524	0.962548	0.758649
	C12716	C	0.233787	0.681555	0.868954
	O12717	O	0.211754	0.687370	0.857997
	O12718	O	0.255801	0.675768	0.879884
	C12719	C	0.963538	0.788250	0.864848
	O12720	O	0.983452	0.792304	0.871346
	O12721	O	0.943657	0.784191	0.858377
	C12722	C	0.324314	0.788065	0.503101
	O12723	O	0.352079	0.768749	0.534368
	O12724	O	0.296556	0.807393	0.471834
	C12725	C	0.853223	0.065901	0.134204
	O12726	O	0.884374	0.058478	0.157124
	O12727	O	0.822046	0.073341	0.111257
	C12728	C	0.300918	0.941134	0.429637
	O12729	O	0.318494	0.941359	0.446440
	O12730	O	0.283353	0.940908	0.412835
	C12731	C	0.471921	0.275173	0.373520
	O12732	O	0.443741	0.294147	0.348343
	O12733	O	0.500112	0.256199	0.398696
	C12734	C	0.339391	0.920760	0.781188
	O12735	O	0.312988	0.923126	0.760634
	O12736	O	0.365820	0.918378	0.801770
	C12737	C	0.228156	0.299121	0.830699
	O12738	O	0.249633	0.276968	0.859220
	O12739	O	0.206675	0.321287	0.802178
	C12740	C	0.093723	0.187776	0.108782
	O12741	O	0.101079	0.181251	0.109109
	O12742	O	0.086367	0.194301	0.108456
	C12743	C	0.251589	0.719650	0.639236
	O12744	O	0.227368	0.742602	0.610280
	O12745	O	0.275777	0.696704	0.668165
	C12746	C	0.277545	0.446520	0.904408
	O12747	O	0.256165	0.461348	0.876920
	O12748	O	0.298955	0.431664	0.931923
	C12749	C	0.975697	0.680828	0.049239
	O12750	O	0.995595	0.678534	0.068815
	O12751	O	0.955809	0.683122	0.029663
	C12752	C	0.901531	0.788466	0.971591
	O12753	O	0.928223	0.770385	1.002315
	O12754	O	0.874838	0.806546	0.940868
	C12755	C	0.968238	0.701043	0.227190
	O12756	O	0.972064	0.717437	0.218408
	O12757	O	0.964402	0.684677	0.235944
	C12758	C	0.406969	0.780448	0.339262
	O12759	O	0.432791	0.759370	0.369931
	O12760	O	0.381137	0.801526	0.308593
	C12761	C	0.620537	0.309537	0.551932
	O12762	O	0.591164	0.330509	0.522623
	O12763	O	0.649909	0.288565	0.581242
	C12764	C	0.107822	0.905297	0.182219
	O12765	O	0.075470	0.920750	0.151904
	O12766	O	0.140180	0.889855	0.212535
	C12767	C	0.499585	0.834457	0.249675
	O12768	O	0.523324	0.811427	0.276619
	O12769	O	0.475862	0.857471	0.222758
	C12770	C	0.335886	0.047423	0.977926
	O12771	O	0.349599	0.027792	1.002043
	O12772	O	0.322174	0.067054	0.953810
	C12773	C	0.463173	0.885315	0.631541
	O12774	O	0.435279	0.898120	0.611422
	O12775	O	0.491097	0.872482	0.651688
	C12776	C	0.676758	0.627768	0.764766
	O12777	O	0.706093	0.612133	0.795381
	O12778	O	0.647422	0.643402	0.734152
	C12779	C	0.186645	0.021667	0.300327
	O12780	O	0.195185	0.015100	0.317266
	O12781	O	0.178095	0.028235	0.283389
	C12782	C	0.270542	0.296594	0.775288
	O12783	O	0.279178	0.296224	0.788692
	O12784	O	0.261871	0.296981	0.761857
	C12785	C	0.202088	0.822938	0.338935
	O12786	O	0.181874	0.816993	0.330235
	O12787	O	0.222276	0.828899	0.347609
	C12788	C	0.497284	0.688743	0.139207
	O12789	O	0.496370	0.672306	0.151578
	O12790	O	0.498156	0.705184	0.126809
	C12791	C	0.033156	0.442343	0.902396
	O12792	O	0.019188	0.435128	0.902559
	O12793	O	0.047113	0.449559	0.902233
	C12794	C	0.536473	0.315816	0.368299
	O12795	O	0.539182	0.326091	0.357587
	O12796	O	0.533747	0.305529	0.379012
	C12797	C	0.306480	0.318115	0.390540
	O12798	O	0.296223	0.323747	0.388854
	O12799	O	0.316744	0.312495	0.392225
	C12800	C	0.520188	0.259393	0.627273
	O12801	O	0.489286	0.279051	0.597718
	O12802	O	0.551091	0.239735	0.656827
	C12803	C	0.933852	0.766799	0.612645
	O12804	O	0.901939	0.785221	0.582928
	O12805	O	0.965768	0.748366	0.642362
	C12806	C	0.621199	0.073801	0.106961
	O12807	O	0.629676	0.055231	0.118353
	O12808	O	0.612705	0.092360	0.095569
	C12809	C	0.695901	0.327442	0.086868
	O12810	O	0.708558	0.333752	0.085482
	O12811	O	0.683270	0.321116	0.088282
	C12812	C	0.141432	0.681550	0.824038
	O12813	O	0.111087	0.701468	0.792716
	O12814	O	0.171771	0.661620	0.855359
	C12815	C	0.519776	0.315918	0.979340
	O12816	O	0.549614	0.310637	1.001771
	O12817	O	0.489904	0.321203	0.956882
	C12818	C	0.408423	0.594192	0.201469
	O12819	O	0.378507	0.605346	0.180071
	O12820	O	0.438309	0.583066	0.222839
	C12821	C	0.742435	0.973402	0.732983
	O12822	O	0.743095	0.985619	0.720258
	O12823	O	0.741739	0.961202	0.745680
	C12824	C	0.558723	0.864474	0.529420
	O12825	O	0.588823	0.852391	0.551525
	O12826	O	0.528596	0.876573	0.507288
	C12827	C	0.474011	0.441655	0.605413
	O12828	O	0.463949	0.429119	0.608757
	O12829	O	0.484082	0.454191	0.602069
	C12830	C	0.774029	0.947642	0.550111
	O12831	O	0.750376	0.967116	0.528414
	O12832	O	0.797681	0.928168	0.571807
	C12833	C	0.760963	0.768962	0.378169
	O12834	O	0.737409	0.788353	0.348424
	O12835	O	0.784507	0.749600	0.407886
	C12836	C	0.593412	0.548334	0.173818
	O12837	O	0.621124	0.535522	0.202747
	O12838	O	0.565720	0.561118	0.144916
	C12839	C	0.547979	0.822322	0.786245
	O12840	O	0.518879	0.843292	0.757398
	O12841	O	0.577112	0.801347	0.815120
	C12842	C	0.203168	0.131367	0.638692
	O12843	O	0.230617	0.120068	0.666696
	O12844	O	0.175709	0.142667	0.610687
	C12845	C	0.522881	0.312632	0.889264
	O12846	O	0.498261	0.335047	0.859546
	O12847	O	0.547483	0.290204	0.918981
	C12848	C	0.814921	0.068431	0.078304
	O12849	O	0.823016	0.066938	0.092143
	O12850	O	0.806815	0.069924	0.064465
	C12851	C	0.149458	0.852104	0.485673
	O12852	O	0.178865	0.847393	0.507778
	O12853	O	0.120094	0.856810	0.463596
	C12854	C	0.230416	0.934445	0.766887
	O12855	O	0.215763	0.925427	0.765908
	O12856	O	0.245094	0.943446	0.767893
	C12857	C	0.310301	0.305377	0.518164
	O12858	O	0.312404	0.318229	0.517647
	O12859	O	0.308206	0.292498	0.518708
	C12860	C	0.910374	0.069372	0.018978
	O12861	O	0.915840	0.080816	0.010413
	O12862	O	0.904897	0.057928	0.027542
	C12863	C	0.552872	0.437831	0.264139
	O12864	O	0.531532	0.459406	0.241736
	O12865	O	0.574218	0.416268	0.286543
	C12866	C	0.507394	0.470400	0.314982
	O12867	O	0.476207	0.484176	0.290567
	O12868	O	0.538624	0.456619	0.339425
	C12869	C	0.982691	0.816077	0.026971
	O12870	O	1.015518	0.800017	0.056145
	O12871	O	0.949839	0.832154	-0.002229
	C12872	C	0.289093	0.223658	0.643151
	O12873	O	0.289841	0.211126	0.657044
	O12874	O	0.288365	0.236161	0.629285
	C12875	C	0.345820	0.745682	0.158891
	O12876	O	0.376581	0.737943	0.184014
	O12877	O	0.315078	0.753392	0.133796
	C12878	C	0.635526	0.180954	0.245977
	O12879	O	0.619792	0.203900	0.222078
	O12880	O	0.651274	0.157990	0.269903
	C12881	C	0.975080	0.434404	0.833200
	O12882	O	0.966108	0.455203	0.818328
	O12883	O	0.984052	0.413605	0.848073
	C12884	C	0.324744	0.265255	0.135155
	O12885	O	0.311449	0.255684	0.129120
	O12886	O	0.337997	0.274830	0.141164
	C12887	C	0.420780	0.586925	0.334041
	O12888	O	0.395302	0.608731	0.307967
	O12889	O	0.446285	0.565102	0.360143
	C12890	C	0.574696	0.548081	0.657806
	O12891	O	0.602210	0.540770	0.683064
	O12892	O	0.547192	0.555391	0.632547
	C12893	C	0.336299	0.162775	0.515635
	O12894	O	0.347162	0.161203	0.530943
	O12895	O	0.325435	0.164346	0.500328
	C12896	C	0.553983	0.806587	0.650927
	O12897	O	0.563738	0.794048	0.657126
	O12898	O	0.544238	0.819098	0.644755
	C12899	C	0.766082	0.953022	0.122377
	O12900	O	0.770320	0.969216	0.114003
	O12901	O	0.761844	0.936829	0.130751
	C12902	C	0.716321	0.610076	0.275993
	O12903	O	0.689651	0.628808	0.245134
	O12904	O	0.742997	0.591355	0.306853
	C12905	C	0.598527	0.057170	0.737306
	O12906	O	0.619641	0.059412	0.745163
	O12907	O	0.577404	0.054956	0.729421
	C12908	C	0.105765	0.642832	0.582112
	O12909	O	0.134709	0.625968	0.613107
	O12910	O	0.076814	0.659685	0.551117
	C12911	C	0.534140	0.308612	0.744456
	O12912	O	0.510477	0.308190	0.726811
	O12913	O	0.557784	0.309062	0.762075
	C12914	C	0.524413	0.938665	0.578632
	O12915	O	0.503274	0.956277	0.550383
	O12916	O	0.545542	0.921053	0.606881
	C12917	C	0.733036	0.335649	0.718600
	O12918	O	0.728758	0.351710	0.711993
	O12919	O	0.737340	0.319572	0.725234
	C12920	C	0.097544	0.699276	0.579529
	O12921	O	0.075198	0.705016	0.556609
	O12922	O	0.119900	0.693536	0.602449
	C12923	C	0.771270	0.773619	0.495325
	O12924	O	0.789331	0.757886	0.521454
	O12925	O	0.753236	0.789335	0.469224
	C12926	C	0.224212	0.434397	0.388446
	O12927	O	0.212483	0.422086	0.388473
	O12928	O	0.235935	0.446696	0.388419
	C12929	C	0.522194	0.949997	0.117646
	O12930	O	0.530154	0.944075	0.117972
	O12931	O	0.514244	0.955918	0.117320
	C12932	C	0.008715	0.953608	0.312182
	O12933	O	0.041415	0.937333	0.342225
	O12934	O	-0.024015	0.969911	0.282111
	C12935	C	0.280152	0.235365	0.420529
	O12936	O	0.306731	0.225873	0.447201
	O12937	O	0.253588	0.244841	0.393884
	C12938	C	0.317080	0.056698	0.356717
	O12939	O	0.311505	0.041552	0.364303
	O12940	O	0.322632	0.071848	0.349104
	C12941	C	0.806428	0.205570	0.281540
	O12942	O	0.800741	0.202699	0.287494
	O12943	O	0.812115	0.208442	0.275586
	C12944	C	0.774971	0.698153	0.304243
	O12945	O	0.803318	0.684981	0.325042
	O12946	O	0.746605	0.711352	0.283416
	C12947	C	0.188314	0.189420	0.720476
	O12948	O	0.184750	0.201548	0.704570
	O12949	O	0.191885	0.177304	0.736381
	C12950	C	0.014599	0.935667	0.765256
	O12951	O	0.004746	0.955751	0.744103
	O12952	O	0.024494	0.915578	0.786436
	C12953	C	0.020496	0.888221	0.248179
	O12954	O	-0.005268	0.897447	0.221888
	O12955	O	0.046244	0.878983	0.274471
	C12956	C	0.996274	0.170878	0.163758
	O12957	O	0.978873	0.180653	0.154405
	O12958	O	1.013701	0.161086	0.173138
	C12959	C	0.558844	0.842798	0.604488
	O12960	O	0.565135	0.827952	0.610796
	O12961	O	0.552584	0.857639	0.598208
	C12962	C	0.893562	0.025092	0.650465
	O12963	O	0.867126	0.047550	0.620639
	O12964	O	0.919988	0.002633	0.680291
	C12965	C	0.700686	0.332179	0.024579
	O12966	O	0.717959	0.331344	0.029282
	O12967	O	0.683424	0.333014	0.019875
	C12968	C	0.303472	0.925726	0.407016
	O12969	O	0.321001	0.933642	0.411992
	O12970	O	0.285952	0.917811	0.402041
	C12971	C	0.071789	0.055470	0.403645
	O12972	O	0.048549	0.058740	0.382383
	O12973	O	0.095039	0.052199	0.424906
	C12974	C	0.763785	0.536385	0.584260
	O12975	O	0.772588	0.530926	0.584858
	O12976	O	0.754991	0.541817	0.583689
	C12977	C	0.492537	0.167555	0.440078
	O12978	O	0.524952	0.156585	0.467158
	O12979	O	0.460119	0.178537	0.412998
	C12980	C	0.575503	0.396551	0.417593
	O12981	O	0.547048	0.416059	0.386162
	O12982	O	0.603958	0.377043	0.449023
	C12983	C	0.235823	0.788740	0.350273
	O12984	O	0.249537	0.779829	0.371263
	O12985	O	0.222129	0.797622	0.329311
	C12986	C	0.830146	0.055611	0.507125
	O12987	O	0.807525	0.055513	0.489099
	O12988	O	0.852782	0.055693	0.525179
	C12989	C	0.410404	0.778967	0.858377
	O12990	O	0.430847	0.756876	0.886355
	O12991	O	0.389918	0.801062	0.830373
	C12992	C	0.218293	0.970751	0.546332
	O12993	O	0.212382	0.991517	0.530100
	O12994	O	0.224204	0.949986	0.562563
	C12995	C	0.833143	0.262921	0.268571
	O12996	O	0.815415	0.256680	0.257967
	O12997	O	0.850855	0.269149	0.279175
	C12998	C	0.344748	0.169442	0.881868
	O12999	O	0.349829	0.161243	0.881950
	O13000	O	0.339636	0.177646	0.881760
	C13001	C	0.785889	0.053295	0.456092
	O13002	O	0.818200	0.036303	0.486761
	O13003	O	0.753546	0.070291	0.425396
	C13004	C	0.711179	0.669553	0.109027
	O13005	O	0.726528	0.647281	0.128984
	O13006	O	0.695821	0.691825	0.089070
	C13007	C	0.889773	0.082520	0.115471
	O13008	O	0.868222	0.090768	0.091191
	O13009	O	0.911330	0.074283	0.139750
	C13010	C	0.184457	0.860536	0.374933
	O13011	O	0.182044	0.860422	0.365254
	O13012	O	0.186871	0.860651	0.384613
	C13013	C	0.674795	0.871903	0.986600
	O13014	O	0.651553	0.884164	0.971048
	O13015	O	0.698054	0.859653	1.002152
	C13016	C	0.347763	0.164994	0.646196
	O13017	O	0.356827	0.155651	0.649540
	O13018	O	0.338732	0.174333	0.642879
	C13019	C	0.460435	0.913495	0.866616
	O13020	O	0.448265	0.921722	0.861993
	O13021	O	0.472648	0.905263	0.871265
	C13022	C	0.284400	0.933164	0.039560
	O13023	O	0.272763	0.937754	0.021996
	O13024	O	0.296070	0.928569	0.057151
	C13025	C	0.102078	0.183511	0.996007
	O13026	O	0.123414	0.182540	1.014876
	O13027	O	0.080775	0.184477	0.977165
	C13028	C	0.006991	0.820592	0.747882
	O13029	O	0.015987	0.833420	0.748915
	O13030	O	-0.002005	0.807764	0.746849
	C13031	C	0.829634	0.812062	0.774174
	O13032	O	0.827015	0.800551	0.773113
	O13033	O	0.832242	0.823573	0.775234
	C13034	C	0.745865	0.739615	0.735973
	O13035	O	0.718915	0.760070	0.704897
	O13036	O	0.772814	0.719161	0.767050
	C13037	C	0.168116	0.709820	0.115824
	O13038	O	0.196842	0.706099	0.134367
	O13039	O	0.139389	0.713542	0.097281
	C13040	C	0.725411	0.834638	0.599323
	O13041	O	0.742649	0.817722	0.625315
	O13042	O	0.708172	0.851553	0.573330
	C13043	C	0.389032	0.611882	0.325477
	O13044	O	0.361462	0.633584	0.297337
	O13045	O	0.416621	0.590152	0.353645
	C13046	C	0.392798	0.283259	0.083578
	O13047	O	0.420222	0.261334	0.111991
	O13048	O	0.365397	0.305179	0.055193
	C13049	C	0.699829	0.495865	0.228413
	O13050	O	0.724653	0.477600	0.258484
	O13051	O	0.674972	0.514135	0.198315
	C13052	C	0.576620	0.246678	0.946795
	O13053	O	0.552414	0.245148	0.934533
	O13054	O	0.600806	0.248237	0.959030
	C13055	C	0.765890	0.582738	0.183715
	O13056	O	0.749575	0.580037	0.169441
	O13057	O	0.782184	0.585443	0.197962
	C13058	C	0.700452	0.948308	0.793505
	O13059	O	0.684541	0.939406	0.790596
	O13060	O	0.716368	0.957200	0.796414
	C13061	C	0.109392	0.568829	0.601498
	O13062	O	0.095159	0.584209	0.590160
	O13063	O	0.123642	0.553460	0.612835
	C13064	C	0.083147	0.684085	0.978062
	O13065	O	0.108562	0.676104	0.993179
	O13066	O	0.057749	0.692077	0.962945
	C13067	C	0.040476	0.337823	0.595163
	O13068	O	0.035117	0.321889	0.600165
	O13069	O	0.045803	0.353763	0.590133
	C13070	C	0.894866	0.092657	0.586109
	O13071	O	0.867891	0.112380	0.555032
	O13072	O	0.921841	0.072934	0.617186
	C13073	C	0.999971	0.951601	0.807072
	O13074	O	0.972720	0.964132	0.778415
	O13075	O	1.027222	0.939070	0.835729
	C13076	C	0.541050	0.926704	0.470584
	O13077	O	0.513770	0.941199	0.440948
	O13078	O	0.568340	0.912180	0.500247
	C13079	C	0.040807	0.179947	0.584940
	O13080	O	0.032657	0.179144	0.588175
	O13081	O	0.048931	0.180766	0.581677
	C13082	C	0.914646	0.589526	0.083334
	O13083	O	0.883584	0.599206	0.060903
	O13084	O	0.945714	0.579857	0.105764
	C13085	C	0.293519	0.724380	0.691764
	O13086	O	0.275566	0.726502	0.685973
	O13087	O	0.311497	0.722241	0.697583
	C13088	C	0.767326	0.293362	0.647256
	O13089	O	0.775468	0.303265	0.651960
	O13090	O	0.759141	0.283464	0.642525
	C13091	C	0.276059	0.648941	0.533607
	O13092	O	0.250615	0.670333	0.503129
	O13093	O	0.301497	0.627538	0.564086
	C13094	C	0.001855	0.445850	0.445026
	O13095	O	0.003441	0.444260	0.438637
	O13096	O	0.000263	0.447427	0.451415
	C13097	C	0.832360	0.652650	0.771319
	O13098	O	0.846000	0.663686	0.773276
	O13099	O	0.818727	0.641626	0.769361
	C13100	C	0.499227	0.472440	0.804027
	O13101	O	0.469846	0.479914	0.778633
	O13102	O	0.528582	0.464983	0.829394
	C13103	C	0.655708	0.482781	0.355765
	O13104	O	0.649997	0.482424	0.360523
	O13105	O	0.661415	0.483150	0.351007
	C13106	C	0.653764	0.548190	0.015090
	O13107	O	0.652350	0.541377	0.025721
	O13108	O	0.655184	0.555015	0.004459
	C13109	C	0.160269	0.677117	0.340159
	O13110	O	0.191600	0.660987	0.371073
	O13111	O	0.128954	0.693230	0.309272
	C13112	C	0.186564	0.452353	0.383308
	O13113	O	0.168146	0.456807	0.376103
	O13114	O	0.205008	0.447881	0.390540
	C13115	C	0.381154	0.073656	0.240920
	O13116	O	0.363021	0.093587	0.213976
	O13117	O	0.399280	0.053714	0.267864
	C13118	C	0.960299	0.778513	0.121425
	O13119	O	0.960888	0.793316	0.108456
	O13120	O	0.959732	0.763705	0.134421
	C13121	C	0.228227	0.473488	0.419441
	O13122	O	0.211176	0.496491	0.397038
	O13123	O	0.245304	0.450469	0.441872
	C13124	C	0.874468	0.587471	0.730536
	O13125	O	0.879943	0.569870	0.748535
	O13126	O	0.868977	0.605088	0.712509
	C13127	C	0.065595	0.057349	0.523846
	O13128	O	0.048251	0.059576	0.505222
	O13129	O	0.082964	0.055105	0.542498
	C13130	C	0.987723	0.173591	0.435374
	O13131	O	0.954863	0.186082	0.407777
	O13132	O	1.020605	0.161095	0.462998
	C13133	C	0.267599	0.299738	0.585728
	O13134	O	0.291695	0.289573	0.612074
	O13135	O	0.243487	0.309919	0.559355
	C13136	C	0.269079	0.154737	0.026563
	O13137	O	0.299826	0.134720	0.057341
	O13138	O	0.238316	0.174743	-0.004214
	C13139	C	0.592228	0.643009	0.942934
	O13140	O	0.612654	0.632799	0.954898
	O13141	O	0.571791	0.653220	0.930971
	C13142	C	0.706174	0.192430	0.856257
	O13143	O	0.712174	0.207243	0.848970
	O13144	O	0.700180	0.177629	0.863543
	C13145	C	0.871556	0.595905	0.480317
	O13146	O	0.862366	0.606388	0.461231
	O13147	O	0.880772	0.585405	0.499431
	C13148	C	0.477132	0.690918	0.858731
	O13149	O	0.459207	0.714186	0.835049
	O13150	O	0.495093	0.667634	0.882439
	C13151	C	0.286756	0.184766	0.151360
	O13152	O	0.282560	0.171489	0.151659
	O13153	O	0.290969	0.198054	0.151061
	C13154	C	0.272226	0.201965	0.670013
	O13155	O	0.244097	0.223847	0.639970
	O13156	O	0.300344	0.180083	0.700057
	C13157	C	0.222376	0.684667	0.358838
	O13158	O	0.247210	0.667362	0.379447
	O13159	O	0.197545	0.701960	0.338229
	C13160	C	0.779968	0.239480	0.157287
	O13161	O	0.751768	0.258088	0.126020
	O13162	O	0.808179	0.220872	0.188554
	C13163	C	0.225128	0.270907	0.629801
	O13164	O	0.243108	0.278236	0.634940
	O13165	O	0.207174	0.263561	0.624690
	C13166	C	0.819833	0.305448	0.804326
	O13167	O	0.837277	0.310323	0.807942
	O13168	O	0.802415	0.300557	0.800737
	C13169	C	0.599029	0.332773	0.404297
	O13170	O	0.569759	0.353530	0.375668
	O13171	O	0.628279	0.312045	0.432900
	C13172	C	0.526541	0.856556	0.630726
	O13173	O	0.553442	0.852457	0.653102
	O13174	O	0.499643	0.860642	0.608349
	C13175	C	0.916491	0.598161	0.460823
	O13176	O	0.948541	0.582834	0.491274
	O13177	O	0.884473	0.613482	0.430399
	C13178	C	0.545616	0.193412	0.701851
	O13179	O	0.551520	0.175747	0.720204
	O13180	O	0.539706	0.211065	0.683499
	C13181	C	0.071585	0.921707	0.272649
	O13182	O	0.100485	0.910945	0.300572
	O13183	O	0.042684	0.932469	0.244726
	C13184	C	0.027764	0.950566	0.616859
	O13185	O	0.024314	0.962740	0.614494
	O13186	O	0.031195	0.938420	0.619198
	C13187	C	0.016539	0.933910	0.201197
	O13188	O	0.043843	0.915369	0.232219
	O13189	O	-0.010766	0.952451	0.170175
	C13190	C	0.816144	0.312289	0.020473
	O13191	O	0.824783	0.324803	0.022023
	O13192	O	0.807494	0.299775	0.018923
	C13193	C	0.718421	0.162035	0.742526
	O13194	O	0.731266	0.168703	0.741275
	O13195	O	0.705569	0.155355	0.743777
	C13196	C	0.571434	0.548419	0.533091
	O13197	O	0.603255	0.537019	0.561204
	O13198	O	0.539643	0.559790	0.505005
	C13199	C	0.908647	0.103534	0.701661
	O13200	O	0.879676	0.122518	0.670176
	O13201	O	0.937599	0.084578	0.733119
	C13202	C	0.826135	0.165583	0.127461
	O13203	O	0.812401	0.154618	0.125368
	O13204	O	0.839868	0.176548	0.129555
	C13205	C	0.250972	0.296540	0.105112
	O13206	O	0.227646	0.314578	0.075721
	O13207	O	0.274298	0.278502	0.134503
	C13208	C	0.508528	0.696400	0.111827
	O13209	O	0.479726	0.707687	0.091626
	O13210	O	0.537304	0.685129	0.132002
	C13211	C	0.436871	0.255070	0.617947
	O13212	O	0.404593	0.266258	0.592879
	O13213	O	0.469149	0.243882	0.643015
	C13214	C	0.236312	0.832402	0.596848
	O13215	O	0.242537	0.811876	0.610715
	O13216	O	0.230044	0.852932	0.582955
	C13217	C	0.113862	0.702903	0.854190
	O13218	O	0.115284	0.695593	0.851526
	O13219	O	0.112415	0.710230	0.856828
	C13220	C	0.363462	0.492387	0.396875
	O13221	O	0.362123	0.494019	0.386842
	O13222	O	0.364827	0.490739	0.406935
	C13223	C	0.057743	0.373828	0.902777
	O13224	O	0.088648	0.361739	0.931624
	O13225	O	0.026837	0.385917	0.873929
	C13226	C	0.527226	0.942368	0.208511
	O13227	O	0.550881	0.933507	0.233932
	O13228	O	0.503596	0.951212	0.183117
	C13229	C	0.965679	0.991963	0.907290
	O13230	O	0.933764	1.004060	0.882657
	O13231	O	0.997594	0.979866	0.931923
	C13232	C	0.900553	0.505235	0.840786
	O13233	O	0.928691	0.483367	0.870558
	O13234	O	0.872390	0.527119	0.810987
	C13235	C	0.970331	0.292777	0.565907
	O13236	O	0.952311	0.308826	0.551497
	O13237	O	0.988348	0.276739	0.580318
	C13238	C	0.807523	0.683395	0.093339
	O13239	O	0.785480	0.683680	0.074987
	O13240	O	0.829556	0.683109	0.111692
	C13241	C	0.410316	0.591552	0.955931
	O13242	O	0.385655	0.607302	0.926676
	O13243	O	0.434977	0.575802	0.985186
	C13244	C	0.830356	0.673918	0.250246
	O13245	O	0.823280	0.685525	0.246385
	O13246	O	0.837438	0.662322	0.254106
	C13247	C	0.642362	0.349242	0.216232
	O13248	O	0.645895	0.339825	0.231268
	O13249	O	0.638818	0.358659	0.201197
	C13250	C	0.218052	0.434336	0.130533
	O13251	O	0.214665	0.426810	0.139968
	O13252	O	0.221439	0.441863	0.121099
	C13253	C	0.436880	0.487275	0.187657
	O13254	O	0.445137	0.492044	0.182899
	O13255	O	0.428591	0.482511	0.192388
	C13256	C	0.096086	0.106592	0.378903
	O13257	O	0.120983	0.107848	0.392497
	O13258	O	0.071232	0.105332	0.365336
	C13259	C	0.256457	0.951973	0.748970
	O13260	O	0.279315	0.929573	0.773766
	O13261	O	0.233588	0.974373	0.724173
	C13262	C	0.734633	0.238524	0.730101
	O13263	O	0.752290	0.222490	0.756093
	O13264	O	0.716951	0.254573	0.704081
	C13265	C	0.985884	0.235443	0.969090
	O13266	O	1.015154	0.230072	0.992282
	O13267	O	0.956635	0.240810	0.945925
	C13268	C	0.523221	0.944760	0.257451
	O13269	O	0.517513	0.940686	0.263894
	O13270	O	0.528938	0.948833	0.251007
	C13271	C	0.786535	0.434553	0.305493
	O13272	O	0.754275	0.447405	0.276537
	O13273	O	0.818791	0.421713	0.334449
	C13274	C	0.121982	0.602753	0.227489
	O13275	O	0.114121	0.623790	0.212263
	O13276	O	0.129846	0.581705	0.242714
	C13277	C	0.362341	0.567482	0.380969
	O13278	O	0.332666	0.574142	0.361257
	O13279	O	0.391999	0.560811	0.400681
	C13280	C	0.146143	0.567634	0.498126
	O13281	O	0.157565	0.555474	0.505059
	O13282	O	0.134720	0.579795	0.491193
	C13283	C	0.730526	0.117616	0.046139
	O13284	O	0.703872	0.120630	0.031077
	O13285	O	0.757170	0.114603	0.061202
	C13286	C	0.765433	0.227709	0.522895
	O13287	O	0.734308	0.247364	0.492389
	O13288	O	0.796558	0.208054	0.553401
	C13289	C	0.046777	0.432937	0.136760
	O13290	O	0.023180	0.452917	0.114574
	O13291	O	0.070374	0.412957	0.158946
	C13292	C	0.786248	0.303873	0.532520
	O13293	O	0.780370	0.324466	0.515826
	O13294	O	0.792146	0.283251	0.549241
	C13295	C	0.756012	0.330219	0.860634
	O13296	O	0.758554	0.342005	0.861395
	O13297	O	0.753434	0.318450	0.859845
	C13298	C	0.523538	0.327468	0.129609
	O13299	O	0.516854	0.312581	0.132273
	O13300	O	0.530223	0.342354	0.126944
	C13301	C	0.489679	0.193765	0.126265
	O13302	O	0.486211	0.213126	0.110930
	O13303	O	0.493173	0.174386	0.141626
	C13304	C	0.816868	0.917310	0.672161
	O13305	O	0.792662	0.915328	0.657316
	O13306	O	0.841041	0.919298	0.686979
	C13307	C	0.257750	0.782767	0.010549
	O13308	O	0.244365	0.801352	-0.003371
	O13309	O	0.271170	0.764166	0.024497
	C13310	C	0.778993	0.988525	0.499648
	O13311	O	0.770160	0.994384	0.482900
	O13312	O	0.787794	0.982670	0.516370
	C13313	C	0.110237	0.209816	0.836164
	O13314	O	0.112095	0.227542	0.826757
	O13315	O	0.108395	0.192074	0.845599
	C13316	C	0.293702	0.443479	0.997584
	O13317	O	0.297407	0.457698	0.995980
	O13318	O	0.290039	0.429254	0.999215
	C13319	C	0.804172	0.815637	0.155221
	O13320	O	0.811244	0.824216	0.148451
	O13321	O	0.797068	0.807063	0.161964
	C13322	C	0.247851	0.233385	0.371236
	O13323	O	0.225789	0.254715	0.342198
	O13324	O	0.269918	0.212044	0.400273
	C13325	C	0.938824	0.772627	0.361040
	O13326	O	0.919156	0.795043	0.338473
	O13327	O	0.958503	0.750210	0.383607
	C13328	C	0.741816	0.231055	0.249348
	O13329	O	0.757970	0.212578	0.274987
	O13330	O	0.725673	0.249532	0.223709
	C13331	C	0.896644	0.023179	0.127760
	O13332	O	0.886497	0.019715	0.130561
	O13333	O	0.906775	0.026660	0.124932
	C13334	C	0.845912	0.596579	0.072594
	O13335	O	0.860364	0.573857	0.095759
	O13336	O	0.831459	0.619301	0.049429
	C13337	C	0.361671	0.296789	0.179174
	O13338	O	0.350878	0.315497	0.166504
	O13339	O	0.372465	0.278081	0.191844
	C13340	C	0.751833	0.230178	0.911287
	O13341	O	0.769437	0.224674	0.932249
	O13342	O	0.734264	0.235665	0.890351
	C13343	C	0.785470	0.030265	0.551769
	O13344	O	0.813124	0.011097	0.582982
	O13345	O	0.757790	0.049448	0.520529
	C13346	C	0.740235	0.462295	0.357940
	O13347	O	0.750235	0.440781	0.374526
	O13348	O	0.730219	0.483797	0.341355
	C13349	C	0.913564	0.602639	0.202393
	O13350	O	0.946379	0.587365	0.232165
	O13351	O	0.880764	0.617897	0.172649
	C13352	C	0.415876	0.085869	0.082491
	O13353	O	0.384237	0.104026	0.051278
	O13354	O	0.447506	0.067740	0.113676
	C13355	C	0.983887	0.674997	0.925044
	O13356	O	0.998906	0.662896	0.934288
	O13357	O	0.968861	0.687087	0.915800
	C13358	C	0.076625	0.358815	0.145324
	O13359	O	0.054442	0.361896	0.124470
	O13360	O	0.098834	0.355718	0.166205
	C13361	C	0.473579	0.847290	0.859383
	O13362	O	0.481210	0.849860	0.854979
	O13363	O	0.465964	0.844733	0.863788
	C13364	C	0.910206	0.608066	0.824935
	O13365	O	0.941433	0.592502	0.850574
	O13366	O	0.878957	0.623634	0.799269
	C13367	C	0.584601	0.545722	0.512862
	O13368	O	0.600097	0.535651	0.521019
	O13369	O	0.569122	0.555776	0.504733
	C13370	C	0.808398	0.715958	0.574499
	O13371	O	0.819423	0.719748	0.585946
	O13372	O	0.797348	0.712185	0.563025
	C13373	C	0.377600	0.536739	0.982467
	O13374	O	0.394689	0.535933	0.987007
	O13375	O	0.360506	0.537557	0.977926
	C13376	C	0.303649	0.184033	0.730345
	O13377	O	0.315608	0.188885	0.741248
	O13378	O	0.291681	0.179181	0.719443
	C13379	C	0.485013	0.262798	0.891113
	O13380	O	0.477320	0.283930	0.875615
	O13381	O	0.492699	0.241654	0.906610
	C13382	C	0.192619	0.085355	0.262345
	O13383	O	0.202424	0.090757	0.258647
	O13384	O	0.182788	0.079969	0.266015
	C13385	C	0.266095	0.461379	0.210849
	O13386	O	0.255050	0.457781	0.199239
	O13387	O	0.277172	0.464972	0.222486
	C13388	C	0.773774	0.709420	0.422269
	O13389	O	0.800495	0.687988	0.453101
	O13390	O	0.747090	0.730836	0.391464
	C13391	C	0.981291	0.183387	0.298234
	O13392	O	1.013119	0.171194	0.326945
	O13393	O	0.949459	0.195591	0.269522
	C13394	C	0.004528	0.826352	0.122785
	O13395	O	0.025029	0.802923	0.148913
	O13396	O	-0.015980	0.849770	0.096656
	C13397	C	0.991018	0.708652	0.164873
	O13398	O	0.999160	0.710305	0.176646
	O13399	O	0.982876	0.706998	0.153100
	C13400	C	0.568011	0.130660	0.110006
	O13401	O	0.553689	0.152826	0.090702
	O13402	O	0.582311	0.108499	0.129283
	C13403	C	0.213044	0.825705	0.037330
	O13404	O	0.181812	0.833980	0.014709
	O13405	O	0.244266	0.817430	0.059951
	C13406	C	0.494489	0.731931	0.905876
	O13407	O	0.500946	0.727320	0.904408
	O13408	O	0.487995	0.736559	0.907317
	C13409	C	0.358388	0.229964	0.047200
	O13410	O	0.349441	0.221376	0.040865
	O13411	O	0.367303	0.238556	0.053508
	C13412	C	0.255622	0.120327	0.159082
	O13413	O	0.278465	0.115951	0.181132
	O13414	O	0.232763	0.124719	0.137004
	C13415	C	0.727536	0.251474	0.093312
	O13416	O	0.754398	0.232876	0.124198
	O13417	O	0.700659	0.270088	0.062398
	C13418	C	0.899998	0.095308	0.956855
	O13419	O	0.867945	0.107266	0.928416
	O13420	O	0.932029	0.083355	0.985267
	C13421	C	0.762882	0.723342	0.382084
	O13422	O	0.733059	0.739874	0.351062
	O13423	O	0.792706	0.706810	0.413106
	C13424	C	0.837717	0.744280	0.655576
	O13425	O	0.858799	0.747956	0.669334
	O13426	O	0.816636	0.740604	0.641819
	C13427	C	0.574727	0.049348	0.405086
	O13428	O	0.596647	0.039538	0.430426
	O13429	O	0.552813	0.059169	0.379746
	C13430	C	0.229990	0.444526	0.756664
	O13431	O	0.226211	0.444229	0.762700
	O13432	O	0.233802	0.444819	0.750655
	C13433	C	0.834865	0.253679	0.521345
	O13434	O	0.824951	0.241716	0.518925
	O13435	O	0.844810	0.265636	0.523792
	C13436	C	0.309508	0.421217	0.916181
	O13437	O	0.286960	0.419273	0.906474
	O13438	O	0.332030	0.423178	0.925860
	C13439	C	0.159560	0.685816	0.960254
	O13440	O	0.179247	0.680693	0.981814
	O13441	O	0.139894	0.690912	0.938720
	C13442	C	0.824070	0.272576	0.883935
	O13443	O	0.792088	0.286629	0.858241
	O13444	O	0.856037	0.258540	0.909601
	C13445	C	0.310011	0.022963	0.572786
	O13446	O	0.337525	0.001106	0.603401
	O13447	O	0.282522	0.044804	0.542199
	C13448	C	0.028140	0.437302	0.703619
	O13449	O	0.059347	0.427034	0.731052
	O13450	O	-0.003052	0.447553	0.676212
	C13451	C	0.902248	0.772922	0.463732
	O13452	O	0.879805	0.795838	0.435293
	O13453	O	0.924687	0.750016	0.492171
	C13454	C	0.629617	0.053769	0.873168
	O13455	O	0.628887	0.054539	0.880563
	O13456	O	0.630357	0.052999	0.865773
	C13457	C	0.395916	0.105932	0.190158
	O13458	O	0.363391	0.116857	0.163976
	O13459	O	0.428467	0.094991	0.216368
	C13460	C	0.591632	0.917320	0.289153
	O13461	O	0.605384	0.896921	0.313215
	O13462	O	0.577855	0.937735	0.265064
	C13463	C	0.325254	0.805812	0.527109
	O13464	O	0.323844	0.792744	0.528115
	O13465	O	0.326682	0.818851	0.526130
	C13466	C	0.802379	0.941086	0.898100
	O13467	O	0.784913	0.935938	0.894457
	O13468	O	0.819871	0.946219	0.901771
	C13469	C	0.021013	0.703071	0.143638
	O13470	O	0.051765	0.689543	0.173383
	O13471	O	-0.009716	0.716594	0.113921
	C13472	C	0.823258	0.281306	0.381948
	O13473	O	0.852696	0.276912	0.403128
	O13474	O	0.793794	0.285716	0.360741
	C13475	C	0.996313	0.323578	0.266505
	O13476	O	0.997566	0.333252	0.254813
	O13477	O	0.995061	0.313904	0.278196
	C13478	C	0.757462	0.814908	0.867921
	O13479	O	0.748730	0.828991	0.861015
	O13480	O	0.766184	0.800853	0.874799
	C13481	C	0.564119	0.804390	0.285591
	O13482	O	0.582295	0.784023	0.304379
	O13483	O	0.545944	0.824756	0.266804
	C13484	C	0.293971	0.302792	0.015769
	O13485	O	0.285840	0.308801	0.015280
	O13486	O	0.302092	0.296783	0.016259
	C13487	C	0.900919	0.283903	0.470176
	O13488	O	0.872470	0.305264	0.441546
	O13489	O	0.929375	0.262554	0.498806
	C13490	C	0.468206	0.211034	0.159435
	O13491	O	0.491172	0.214292	0.170746
	O13492	O	0.445247	0.207788	0.148125
	C13493	C	0.245763	0.789562	0.477055
	O13494	O	0.275459	0.772098	0.508349
	O13495	O	0.216074	0.807037	0.445760
	C13496	C	0.265733	0.264917	0.251551
	O13497	O	0.244287	0.286948	0.223002
	O13498	O	0.287137	0.242891	0.280072
	C13499	C	0.792971	0.948042	0.801498
	O13500	O	0.776869	0.970616	0.776702
	O13501	O	0.809093	0.925439	0.826322
	C13502	C	0.598028	0.546149	0.800465
	O13503	O	0.578306	0.553585	0.777409
	O13504	O	0.617749	0.538712	0.823521
	C13505	C	0.473957	0.949406	0.601960
	O13506	O	0.473619	0.966523	0.588583
	O13507	O	0.474304	0.932261	0.615364
	C13508	C	0.894321	0.105928	0.071534
	O13509	O	0.919552	0.092120	0.100191
	O13510	O	0.869057	0.119741	0.042850
	C13511	C	0.651960	0.797052	0.574282
	O13512	O	0.626642	0.819198	0.547800
	O13513	O	0.677261	0.774894	0.600764
	C13514	C	0.203354	0.952645	0.413868
	O13515	O	0.232280	0.946520	0.432411
	O13516	O	0.174385	0.958774	0.395298
	C13517	C	0.309986	0.284436	0.869579
	O13518	O	0.277541	0.296089	0.843994
	O13519	O	0.342438	0.272795	0.895164
	C13520	C	0.156584	0.061331	0.380697
	O13521	O	0.182624	0.061491	0.396766
	O13522	O	0.130527	0.061159	0.364629
	C13523	C	0.881713	0.090178	0.861803
	O13524	O	0.883773	0.100851	0.850493
	O13525	O	0.879676	0.079499	0.873141
	C13526	C	0.569689	0.178287	0.354352
	O13527	O	0.582221	0.190058	0.355385
	O13528	O	0.557125	0.166521	0.353291
	C13529	C	0.032704	0.649409	0.334531
	O13530	O	0.015494	0.660024	0.324770
	O13531	O	0.049946	0.638790	0.344319
	C13532	C	0.219437	0.222577	0.893859
	O13533	O	0.193230	0.238824	0.863842
	O13534	O	0.245601	0.206335	0.923848
	C13535	C	0.266287	0.711479	0.392198
	O13536	O	0.278290	0.699855	0.413433
	O13537	O	0.254252	0.723108	0.370937
	C13538	C	0.535402	0.947335	0.003208
	O13539	O	0.547767	0.938976	0.008048
	O13540	O	0.523055	0.955666	-0.001604
	C13541	C	0.680300	0.858345	0.872135
	O13542	O	0.659181	0.870822	0.858160
	O13543	O	0.701445	0.845852	0.886137
	C13544	C	0.795613	0.801468	0.474825
	O13545	O	0.770716	0.815669	0.446114
	O13546	O	0.820546	0.787250	0.503564
	C13547	C	0.109436	0.386813	0.569116
	O13548	O	0.139080	0.378068	0.595570
	O13549	O	0.079760	0.395562	0.542634
	C13550	C	0.278554	0.227311	0.764331
	O13551	O	0.287690	0.208562	0.785158
	O13552	O	0.269399	0.246087	0.743477
	C13553	C	0.847513	0.249924	0.033442
	O13554	O	0.833955	0.241881	0.025367
	O13555	O	0.861086	0.257950	0.041544
	C13556	C	0.268906	0.809116	0.517974
	O13557	O	0.246520	0.824107	0.489969
	O13558	O	0.291311	0.794097	0.546005
	C13559	C	0.796679	0.203091	0.897828
	O13560	O	0.802426	0.186039	0.906202
	O13561	O	0.790921	0.220143	0.889454
	C13562	C	0.778351	0.145925	0.036950
	O13563	O	0.808409	0.126152	0.068434
	O13564	O	0.748329	0.165682	0.005492
	C13565	C	0.584471	0.340534	0.293421
	O13566	O	0.562144	0.353002	0.266532
	O13567	O	0.606828	0.328038	0.320338
	C13568	C	0.105745	0.407699	0.420284
	O13569	O	0.125493	0.386351	0.441301
	O13570	O	0.086022	0.429031	0.399295
	C13571	C	0.720170	0.461134	0.121615
	O13572	O	0.723777	0.475268	0.111392
	O13573	O	0.716588	0.446983	0.131866
	C13574	C	0.018530	0.452669	0.750383
	O13575	O	0.017472	0.449880	0.759492
	O13576	O	0.019617	0.455430	0.741302
	C13577	C	0.493712	0.934442	0.006988
	O13578	O	0.484440	0.923624	0.003045
	O13579	O	0.502999	0.945244	0.010957
	C13580	C	0.985451	0.176940	0.268788
	O13581	O	0.984362	0.176042	0.260360
	O13582	O	0.986583	0.177832	0.277244
	C13583	C	0.155484	0.717072	0.839780
	O13584	O	0.156863	0.730531	0.838339
	O13585	O	0.154096	0.703613	0.841221
	C13586	C	0.300997	0.468539	0.351306
	O13587	O	0.271553	0.489515	0.321779
	O13588	O	0.330466	0.447546	0.380861
	C13589	C	0.786134	0.204729	0.521182
	O13590	O	0.804046	0.190854	0.533770
	O13591	O	0.768212	0.218605	0.508594
	C13592	C	0.350124	0.542068	0.534124
	O13593	O	0.339157	0.563442	0.512645
	O13594	O	0.361108	0.520706	0.555603
	C13595	C	0.638762	0.307431	0.810144
	O13596	O	0.615121	0.329894	0.780808
	O13597	O	0.662392	0.284968	0.839481
	C13598	C	0.031801	0.251297	0.046901
	O13599	O	0.002282	0.255728	0.026156
	O13600	O	0.061346	0.246849	0.067673
	C13601	C	0.544721	0.888951	0.865147
	O13602	O	0.571742	0.873452	0.895137
	O13603	O	0.517710	0.904450	0.835158
	C13604	C	0.785488	0.276068	0.165172
	O13605	O	0.781701	0.288434	0.162453
	O13606	O	0.789286	0.263703	0.167891
	C13607	C	0.056606	0.298635	0.786327
	O13608	O	0.052512	0.318199	0.770449
	O13609	O	0.060684	0.279060	0.802205
	C13610	C	0.613447	0.793136	0.053997
	O13611	O	0.581347	0.806519	0.024606
	O13612	O	0.645554	0.779765	0.083388
	C13613	C	0.437621	0.318435	0.014193
	O13614	O	0.426753	0.322532	0.012969
	O13615	O	0.448482	0.314325	0.015416
	C13616	C	0.819161	0.420506	0.545625
	O13617	O	0.802991	0.413446	0.543314
	O13618	O	0.835306	0.427582	0.547909
	C13619	C	0.339026	0.173598	0.000598
	O13620	O	0.347390	0.186938	0.000788
	O13621	O	0.330662	0.160259	0.000408
	C13622	C	0.591631	0.055226	0.666343
	O13623	O	0.600415	0.061966	0.674364
	O13624	O	0.582846	0.048485	0.658322
	C13625	C	0.297607	0.938800	0.520366
	O13626	O	0.315316	0.944231	0.524309
	O13627	O	0.279888	0.933368	0.516424
	C13628	C	0.256847	0.816507	0.964468
	O13629	O	0.229598	0.834219	0.933663
	O13630	O	0.284106	0.798766	0.995300
	C13631	C	0.188360	0.310238	0.405793
	O13632	O	0.177684	0.305160	0.395570
	O13633	O	0.199036	0.315317	0.416016
	C13634	C	0.299380	0.424267	0.647827
	O13635	O	0.285259	0.417116	0.647827
	O13636	O	0.313516	0.431402	0.647854
	C13637	C	0.274639	0.235390	0.005519
	O13638	O	0.279622	0.219506	0.023138
	O13639	O	0.269656	0.251273	-0.012099
	C13640	C	0.175172	0.821760	0.269713
	O13641	O	0.198903	0.805748	0.288364
	O13642	O	0.151404	0.837788	0.251034
	C13643	C	0.842586	0.548196	0.227978
	O13644	O	0.829640	0.567141	0.204378
	O13645	O	0.855525	0.529238	0.251578
	C13646	C	0.210031	0.313704	0.347853
	O13647	O	0.228703	0.318948	0.352965
	O13648	O	0.191366	0.308471	0.342742
	C13649	C	0.040116	0.624964	0.227733
	O13650	O	0.052571	0.620251	0.245787
	O13651	O	0.027672	0.629677	0.209680
	C13652	C	0.209222	0.562436	0.057640
	O13653	O	0.198477	0.557732	0.060359
	O13654	O	0.219957	0.567139	0.054921
	C13655	C	0.574086	0.349964	0.536109
	O13656	O	0.598728	0.331288	0.566207
	O13657	O	0.549445	0.368641	0.506011
	C13658	C	0.081688	0.365928	0.272568
	O13659	O	0.110508	0.360440	0.296086
	O13660	O	0.052838	0.371444	0.249022
	C13661	C	0.214727	0.839869	0.782602
	O13662	O	0.232317	0.838144	0.787931
	O13663	O	0.197152	0.841578	0.777300
	C13664	C	0.170330	0.316916	0.019467
	O13665	O	0.163195	0.332490	0.012017
	O13666	O	0.177492	0.301326	0.026944
	C13667	C	0.345054	0.745486	0.656745
	O13668	O	0.319829	0.746544	0.637523
	O13669	O	0.370279	0.744428	0.675968
	C13670	C	0.765249	0.802779	0.385265
	O13671	O	0.771153	0.792829	0.387141
	O13672	O	0.759312	0.812734	0.383362
	C13673	C	0.987688	0.324938	0.008184
	O13674	O	0.979155	0.324469	0.010984
	O13675	O	0.996220	0.325407	0.005383
	C13676	C	0.517078	0.881623	0.360659
	O13677	O	0.546375	0.875060	0.385184
	O13678	O	0.487781	0.888186	0.336135
	C13679	C	0.877377	0.129072	0.300790
	O13680	O	0.900387	0.106067	0.326945
	O13681	O	0.854398	0.152049	0.274661
	C13682	C	0.167321	0.054610	0.514493
	O13683	O	0.176343	0.067858	0.514738
	O13684	O	0.158290	0.041390	0.514222
	C13685	C	0.538530	0.179980	0.906257
	O13686	O	0.523473	0.186006	0.886137
	O13687	O	0.553591	0.173944	0.926376
	C13688	C	0.318266	0.434600	0.628931
	O13689	O	0.317363	0.416550	0.639752
	O13690	O	0.319196	0.452633	0.618137
	C13691	C	0.723160	0.171381	0.244726
	O13692	O	0.737069	0.148644	0.267266
	O13693	O	0.709240	0.194118	0.222187
	C13694	C	0.361074	0.779850	0.415961
	O13695	O	0.385248	0.756821	0.443476
	O13696	O	0.336894	0.802868	0.388446
	C13697	C	0.400806	0.895225	0.542389
	O13698	O	0.402385	0.897665	0.533798
	O13699	O	0.399209	0.892812	0.550954
	C13700	C	0.013388	0.132876	0.580535
	O13701	O	0.034110	0.109877	0.604978
	O13702	O	-0.007353	0.155902	0.556065
	C13703	C	0.971062	0.944577	0.355575
	O13704	O	0.988119	0.953122	0.360986
	O13705	O	0.953990	0.936048	0.350137
	C13706	C	0.695477	0.021079	0.371752
	O13707	O	0.707088	-0.001314	0.392062
	O13708	O	0.683867	0.043473	0.351442
	C13709	C	0.703267	0.958035	0.644048
	O13710	O	0.717622	0.957140	0.660497
	O13711	O	0.688938	0.958913	0.627626
	C13712	C	0.469660	0.797584	0.485048
	O13713	O	0.464762	0.811708	0.467729
	O13714	O	0.474583	0.783444	0.502394
	C13715	C	0.680195	0.048432	0.713108
	O13716	O	0.667220	0.070941	0.693314
	O13717	O	0.693161	0.025922	0.732901
	C13718	C	0.433528	0.850757	0.612509
	O13719	O	0.429828	0.857803	0.614059
	O13720	O	0.437207	0.843716	0.610932
	C13721	C	0.134546	0.360615	0.203807
	O13722	O	0.165845	0.341270	0.233688
	O13723	O	0.103241	0.379949	0.173927
	C13724	C	0.570221	0.558672	0.899976
	O13725	O	0.594334	0.555920	0.920939
	O13726	O	0.546071	0.561441	0.878986
	C13727	C	0.872825	0.560599	0.525532
	O13728	O	0.903397	0.553061	0.550573
	O13729	O	0.842274	0.568132	0.500518
	C13730	C	0.601485	0.083971	0.349729
	O13731	O	0.605654	0.064838	0.360442
	O13732	O	0.597336	0.103077	0.339044
