data_Molecule from CHK

_cell_length_a		58.329652
_cell_length_b		42.210035
_cell_length_c		40.017232
_cell_angle_alpha	123.271612
_cell_angle_beta	65.238233
_cell_angle_gamma	90.475887
_symmetry_space_group_name_H-M	'P 1'
_symmetry_Int_Tables_number		1

loop_
	_symmetry_equiv_pos_as_xyz
	x,y,z

loop_
	_atom_site_label
	_atom_site_type_symbol
	_atom_site_fract_x
	_atom_site_fract_y
	_atom_site_fract_z
	F0	F	0.161946	0.627308	0.096162
	C1	C	0.158898	0.614155	0.059880
	C2	C	0.135492	0.630279	0.066181
	F3	F	0.116031	0.658732	0.108370
	C4	C	0.131842	0.616235	0.028654
	C5	C	0.153227	0.589183	-0.015450
	F6	F	0.150693	0.578343	-0.051572
	C7	C	0.176684	0.573114	-0.021811
	F8	F	0.196998	0.547256	-0.064162
	C9	C	0.179127	0.583584	0.015927
	C10	C	0.028126	0.637957	0.029571
	C11	C	0.049064	0.654146	0.028394
	C12	C	0.069079	0.639479	0.031400
	C13	C	0.067096	0.609876	0.037172
	C14	C	0.045977	0.593952	0.038655
	C15	C	0.026695	0.607390	0.034168
	C16	C	0.044556	0.686526	0.024089
	C17	C	0.009324	0.659872	0.027451
	N18	N	0.019659	0.689838	0.026246
	O19	O	-0.010811	0.654898	0.026956
	O20	O	0.058243	0.706724	0.019642
	C21	C	0.089703	0.600888	0.042070
	C22	C	0.094752	0.648198	0.028650
	N23	N	0.106219	0.623539	0.034973
	O24	O	0.104729	0.670645	0.022398
	O25	O	0.093694	0.580008	0.051802
	C26	C	0.008024	0.582498	0.033310
	C27	C	0.040121	0.561006	0.042138
	N28	N	0.017511	0.554705	0.037563
	O29	O	0.051710	0.542705	0.047810
	O30	O	-0.010929	0.583594	0.028837
	C31	C	0.228032	0.520627	0.008543
	C32	C	0.240448	0.548654	0.008180
	C33	C	0.264630	0.547746	0.007265
	C34	C	0.276107	0.519330	0.007574
	C35	C	0.262981	0.492102	0.010141
	C36	C	0.239411	0.492123	0.009407
	C37	C	0.223910	0.575694	0.008111
	C38	C	0.202640	0.529340	0.009688
	N39	N	0.201128	0.563206	0.010188
	O40	O	0.186106	0.512373	0.010083
	O41	O	0.228013	0.602716	0.006323
	C42	C	0.301861	0.525929	0.005952
	C43	C	0.282305	0.573517	0.005777
	N44	N	0.304241	0.559210	0.005420
	O45	O	0.279627	0.600955	0.004617
	O46	O	0.318202	0.507374	0.004379
	C47	C	0.230737	0.458673	0.009936
	C48	C	0.269543	0.459755	0.013310
	N49	N	0.249781	0.440013	0.011868
	O50	O	0.286930	0.451884	0.018417
	O51	O	0.211817	0.448071	0.008727
	F52	F	-0.020997	0.754245	0.110570
	C53	C	-0.014869	0.751920	0.073076
	C54	C	-0.029138	0.780988	0.076812
	F55	F	-0.048875	0.810836	0.117676
	C56	C	-0.023084	0.779468	0.038294
	C57	C	-0.002860	0.747265	-0.004394
	F58	F	0.002934	0.744144	-0.042237
	C59	C	0.011318	0.718132	-0.008151
	F60	F	0.030547	0.687685	-0.049226
	C61	C	0.005691	0.720149	0.030486
	F62	F	-0.029223	0.563938	0.106634
	C63	C	-0.016023	0.528041	0.066670
	C64	C	-0.026290	0.496532	0.059520
	F65	F	-0.049897	0.503050	0.091952
	C66	C	-0.012398	0.458406	0.018532
	C67	C	0.012332	0.452390	-0.014678
	F68	F	0.026207	0.415944	-0.053398
	C69	C	0.022238	0.484107	-0.008110
	F70	F	0.045525	0.478109	-0.040886
	C71	C	0.007935	0.522432	0.032281
	F72	F	0.349074	0.535569	-0.075223
	C73	C	0.347347	0.564166	-0.035215
	C74	C	0.367971	0.580756	-0.034703
	F75	F	0.389421	0.568294	-0.074129
	C76	C	0.366663	0.610279	0.006829
	C77	C	0.343572	0.624537	0.047774
	F78	F	0.341513	0.653982	0.087740
	C79	C	0.322946	0.607986	0.047274
	F80	F	0.301118	0.621931	0.086848
	C81	C	0.324885	0.576804	0.005816
	F82	F	0.283409	0.299755	-0.071035
	C83	C	0.266353	0.334510	-0.032569
	C84	C	0.267608	0.368835	-0.029636
	F85	F	0.286153	0.366751	-0.065192
	C86	C	0.249617	0.405452	0.009911
	C87	C	0.230914	0.406702	0.046889
	F88	F	0.214005	0.441499	0.085596
	C89	C	0.229690	0.372355	0.043961
	F90	F	0.211263	0.374431	0.079601
	C91	C	0.247490	0.335679	0.004201
	C92	C	0.937650	0.904645	0.027362
	C93	C	0.952574	0.896631	0.042701
	C94	C	0.952648	0.863756	0.043262
	C95	C	0.937474	0.839576	0.029029
	C96	C	0.921071	0.849218	0.016596
	C97	C	0.921499	0.881078	0.014742
	C98	C	0.969198	0.924526	0.050399
	C99	C	0.944748	0.937446	0.023798
	N100	N	0.964036	0.947851	0.037704
	O101	O	0.937270	0.951824	0.010033
	O102	O	0.984678	0.927384	0.063566
	C103	C	0.943528	0.804538	0.028187
	C104	C	0.968293	0.845750	0.053689
	N105	N	0.962789	0.809338	0.042048
	O106	O	0.982489	0.858260	0.069590
	O107	O	0.935213	0.776431	0.017038
	C108	C	0.903473	0.881941	-0.003131
	C109	C	0.902555	0.829104	0.000972
	N110	N	0.892561	0.849992	-0.010397
	O111	O	0.896225	0.801247	-0.001157
	O112	O	0.898730	0.904194	-0.010659
	C113	C	0.929940	0.372984	-0.023960
	C114	C	0.925156	0.339500	-0.027084
	C115	C	0.940129	0.320529	-0.019922
	C116	C	0.958484	0.336648	-0.007212
	C117	C	0.962754	0.371037	-0.003041
	C118	C	0.948842	0.388497	-0.012443
	C119	C	0.902193	0.332771	-0.035831
	C120	C	0.912696	0.385978	-0.035758
	N121	N	0.895215	0.362645	-0.039345
	O122	O	0.912771	0.410727	-0.041992
	O123	O	0.890782	0.308536	-0.038459
	C124	C	0.971304	0.310429	-0.001792
	C125	C	0.940958	0.282972	-0.023826
	N126	N	0.960720	0.277944	-0.013858
	O127	O	0.928421	0.260191	-0.033842
	O128	O	0.987148	0.314694	0.010919
	C129	C	0.957060	0.424268	-0.005890
	C130	C	0.980127	0.395991	0.011206
	N131	N	0.975724	0.427517	0.008694
	O132	O	0.994837	0.391716	0.023079
	O133	O	0.950227	0.446487	-0.011981
	C134	C	0.468028	0.656048	-0.006972
	C135	C	0.445981	0.664028	-0.009450
	C136	C	0.426302	0.645669	-0.001719
	C137	C	0.429013	0.619993	0.008697
	C138	C	0.451966	0.610251	0.008315
	C139	C	0.471354	0.628528	0.000988
	C140	C	0.448922	0.693117	-0.020648
	C141	C	0.485339	0.680178	-0.015159
	N142	N	0.472855	0.702068	-0.022880
	O143	O	0.505638	0.682610	-0.014438
	O144	O	0.434654	0.706862	-0.026905
	C145	C	0.405626	0.604387	0.014975
	C146	C	0.400902	0.646853	-0.003071
	N147	N	0.389404	0.621495	0.007558
	O148	O	0.391545	0.663934	-0.012433
	O149	O	0.400443	0.581480	0.023907
	C150	C	0.493971	0.611228	0.000619
	C151	C	0.461049	0.581313	0.014042
	N152	N	0.486871	0.581925	0.006919
	O153	O	0.450063	0.560456	0.022531
	O154	O	0.514439	0.618753	-0.004188
	C155	C	0.268791	0.219068	0.003174
	C156	C	0.258127	0.188300	-0.001680
	C157	C	0.235901	0.185872	-0.007673
	C158	C	0.225409	0.213462	-0.010136
	C159	C	0.236145	0.244711	-0.004806
	C160	C	0.257471	0.247780	0.002584
	C161	C	0.275100	0.162325	-0.000582
	C162	C	0.292240	0.214610	0.008646
	N163	N	0.295719	0.179321	0.004522
	O164	O	0.306162	0.235747	0.015346
	O165	O	0.272815	0.133034	-0.003071
	C166	C	0.202126	0.203665	-0.016846
	C167	C	0.219604	0.157171	-0.013218
	N168	N	0.199447	0.169689	-0.018207
	O169	O	0.221886	0.129220	-0.012868
	O170	O	0.187773	0.220665	-0.020100
	C171	C	0.265033	0.283364	0.006511
	C172	C	0.229835	0.277626	-0.007398
	N173	N	0.247219	0.300795	0.001537
	O174	O	0.214303	0.283798	-0.016891
	O175	O	0.282525	0.295961	0.012379
	F176	F	0.840898	0.897459	0.051365
	C177	C	0.846330	0.864037	0.010982
	C178	C	0.825874	0.851275	0.003212
	F179	F	0.800920	0.872460	0.036274
	C180	C	0.831102	0.816025	-0.038430
	C181	C	0.857287	0.796124	-0.073707
	F182	F	0.862599	0.764776	-0.115314
	C183	C	0.877786	0.808169	-0.065458
	F184	F	0.902712	0.787245	-0.098761
	C185	C	0.872516	0.841496	-0.022347
	F186	F	0.014528	-0.085690	-0.036707
	C187	C	0.005127	-0.046257	-0.007715
	C188	C	0.020528	-0.023489	-0.016151
	F189	F	0.044570	-0.041214	-0.053063
	C190	C	0.010922	0.017708	0.013091
	C191	C	-0.014038	0.035463	0.052237
	F192	F	-0.023782	0.074849	0.081028
	C193	C	-0.029140	0.012682	0.061288
	F194	F	-0.052671	0.030266	0.099295
	C195	C	-0.020119	-0.028527	0.030673
	F196	F	0.951045	0.275455	0.058495
	C197	C	0.968157	0.244208	0.015933
	C198	C	0.982993	0.213343	0.008781
	F199	F	0.980196	0.215076	0.044605
	C200	C	1.000987	0.180490	-0.035732
	C201	C	1.001442	0.177531	-0.072366
	F202	F	1.015924	0.144297	-0.114663
	C203	C	0.987222	0.208792	-0.065364
	F204	F	0.989072	0.205476	-0.101552
	C205	C	0.971371	0.243460	-0.021037
	F206	F	0.878417	0.331048	-0.105158
	C207	C	0.863120	0.364668	-0.063445
	C208	C	0.840490	0.386232	-0.053855
	F209	F	0.833710	0.372982	-0.086214
	C210	C	0.824617	0.421896	-0.010372
	C211	C	0.830715	0.434016	0.024217
	F212	F	0.814823	0.466770	0.066524
	C213	C	0.853023	0.412257	0.014882
	F214	F	0.858535	0.424135	0.048458
	C215	C	0.870099	0.378350	-0.029536
	F216	F	0.517716	0.680604	-0.103124
	C217	C	0.506675	0.718735	-0.067147
	C218	C	0.519458	0.746252	-0.068380
	F219	F	0.542260	0.734214	-0.105741
	C220	C	0.508854	0.786183	-0.030736
	C221	C	0.484039	0.798326	0.006492
	F222	F	0.472849	0.836742	0.041591
	C223	C	0.471179	0.770819	0.007668
	F224	F	0.447658	0.782961	0.043903
	C225	C	0.482897	0.730468	-0.028274
	F226	F	0.524259	0.516510	-0.080419
	C227	C	0.521573	0.519450	-0.043973
	C228	C	0.535970	0.488839	-0.050199
	F229	F	0.553161	0.457261	-0.092475
	C230	C	0.532382	0.490554	-0.012502
	C231	C	0.515062	0.524540	0.031660
	F232	F	0.511126	0.526925	0.068412
	C233	C	0.501720	0.555911	0.037825
	F234	F	0.486305	0.588874	0.080095
	C235	C	0.503913	0.553070	0.000221
	F236	F	0.205316	0.102024	-0.100360
	C237	C	0.181514	0.120535	-0.062842
	C238	C	0.159978	0.107408	-0.065989
	F239	F	0.163308	0.076893	-0.106571
	C240	C	0.134844	0.125726	-0.027320
	C241	C	0.132233	0.156505	0.014890
	F242	F	0.108671	0.173321	0.052725
	C243	C	0.153684	0.169882	0.017980
	F244	F	0.150505	0.199464	0.058875
	C245	C	0.178528	0.152950	-0.021066
	F246	F	0.297824	0.200245	0.082438
	C247	C	0.319689	0.177420	0.041484
	C248	C	0.343721	0.168697	0.038683
	F249	F	0.344851	0.183164	0.076871
	C250	C	0.366898	0.145089	-0.003669
	C251	C	0.364676	0.126921	-0.043161
	F252	F	0.386055	0.101183	-0.084020
	C253	C	0.340697	0.135754	-0.040435
	F254	F	0.339221	0.118322	-0.078821
	C255	C	0.318175	0.163139	0.001949
	C256	C	0.766208	0.738673	-0.025657
	C257	C	0.740583	0.743109	-0.017926
	C258	C	0.728955	0.772053	-0.017888
	C259	C	0.743168	0.795748	-0.026390
	C260	C	0.768782	0.792018	-0.032854
	C261	C	0.780079	0.763841	-0.032066
	C262	C	0.730409	0.713476	-0.010241
	C263	C	0.773305	0.706395	-0.022801
	N264	N	0.751067	0.692137	-0.013843
	O265	O	0.793300	0.693866	-0.026675
	O266	O	0.709303	0.707614	-0.002374
	C267	C	0.725763	0.823504	-0.024455
	C268	C	0.701870	0.784227	-0.009590
	N269	N	0.700776	0.816477	-0.011875
	O270	O	0.683869	0.770624	-0.002469
	O271	O	0.730957	0.846600	-0.033017
	C272	C	0.806847	0.767626	-0.037882
	C273	C	0.788267	0.814320	-0.040193
	N274	N	0.810582	0.798724	-0.042058
	O275	O	0.786204	0.840625	-0.043375
	O276	O	0.822510	0.749637	-0.037699
	C277	C	0.033787	0.081707	-0.022082
	C278	C	0.054598	0.074274	-0.016666
	C279	C	0.075010	0.091683	-0.024331
	C280	C	0.074159	0.116022	-0.037266
	C281	C	0.052663	0.124099	-0.041546
	C282	C	0.032539	0.107096	-0.033643
	C283	C	0.048679	0.048552	-0.000559
	C284	C	0.014944	0.059659	-0.012672
	N285	N	0.024585	0.040651	0.000706
	O286	O	-0.004588	0.057037	-0.016039
	O287	O	0.060983	0.036591	0.009876
	C288	C	0.098283	0.130323	-0.043024
	C289	C	0.098892	0.091961	-0.018315
	N290	N	0.112311	0.115244	-0.030732
	O291	O	0.105782	0.077233	-0.004352
	O292	O	0.105480	0.150624	-0.055312
	C293	C	0.011272	0.122415	-0.037352
	C294	C	0.044365	0.152362	-0.049010
	N295	N	0.018664	0.151532	-0.043445
	O296	O	0.055713	0.172895	-0.057571
	O297	O	-0.008569	0.113569	-0.035437
	C298	C	0.772812	0.490730	0.009202
	C299	C	0.758263	0.471659	0.025895
	C300	C	0.731285	0.479341	0.041300
	C301	C	0.718775	0.505904	0.039820
	C302	C	0.733132	0.526728	0.025040
	C303	C	0.760020	0.519214	0.009931
	C304	C	0.776376	0.443275	0.021793
	C305	C	0.801174	0.474898	-0.006443
	N306	N	0.802031	0.444994	-0.000060
	O307	O	0.820100	0.484220	-0.021408
	O308	O	0.771317	0.423222	0.034979
	C309	C	0.690566	0.504945	0.055022
	C310	C	0.711919	0.460848	0.057591
	N311	N	0.687866	0.476710	0.064492
	O312	O	0.715461	0.436708	0.063386
	O313	O	0.673173	0.522665	0.057752
	C314	C	0.770296	0.544515	-0.005166
	C315	C	0.725316	0.557110	0.019988
	N316	N	0.748466	0.566993	0.002221
	O317	O	0.704234	0.571327	0.028347
	O318	O	0.792279	0.546764	-0.020522
	C319	C	0.558596	0.919866	-0.005786
	C320	C	0.540490	0.902218	-0.017946
	C321	C	0.537582	0.867542	-0.022093
	C322	C	0.552690	0.850726	-0.013737
	C323	C	0.571940	0.867137	-0.003958
	C324	C	0.574977	0.901565	0.000176
	C325	C	0.526045	0.927005	-0.023052
	C326	C	0.555506	0.957859	-0.001004
	N327	N	0.535086	0.960760	-0.010788
	O328	O	0.566837	0.982379	0.009527
	O329	O	0.510220	0.920693	-0.036014
	C330	C	0.544173	0.815701	-0.017679
	C331	C	0.519056	0.843651	-0.032275
	N332	N	0.523683	0.813185	-0.028511
	O333	O	0.503241	0.848288	-0.042069
	O334	O	0.551775	0.793884	-0.011778
	C335	C	0.597745	0.910511	0.009208
	C336	C	0.590740	0.854969	0.006152
	N337	N	0.606732	0.880675	0.011248
	O338	O	0.592761	0.829072	0.010042
	O339	O	0.607552	0.936523	0.013301
	C340	C	0.563650	0.364051	0.002153
	C341	C	0.550341	0.373006	-0.014790
	C342	C	0.551830	0.405647	-0.015629
	C343	C	0.566852	0.429017	0.000336
	C344	C	0.579839	0.420470	0.018070
	C345	C	0.578628	0.388004	0.018748
	C346	C	0.534918	0.344159	-0.027655
	C347	C	0.556238	0.329861	0.002263
	N348	N	0.538910	0.319275	-0.016143
	O349	O	0.562359	0.314210	0.016013
	O350	O	0.521205	0.341719	-0.043908
	C351	C	0.563540	0.463331	-0.001112
	C352	C	0.538977	0.423463	-0.029575
	N353	N	0.545859	0.459067	-0.017980
	O354	O	0.525617	0.411595	-0.047405
	O355	O	0.572922	0.490337	0.009902
	C356	C	0.594447	0.387495	0.040298
	C357	C	0.596908	0.440886	0.037212
	N358	N	0.604893	0.420298	0.050532
	O359	O	0.603664	0.468935	0.040549
	O360	O	0.598078	0.364880	0.048012
	C361	C	0.453393	0.172010	-0.014836
	C362	C	0.472733	0.159090	-0.010035
	C363	C	0.471202	0.129859	-0.003309
	C364	C	0.449926	0.114421	0.000130
	C365	C	0.429549	0.128899	-0.002429
	C366	C	0.431790	0.156630	-0.011299
	C367	C	0.492947	0.180963	-0.013939
	C368	C	0.460713	0.202813	-0.022221
	N369	N	0.484480	0.207289	-0.020594
	O370	O	0.449541	0.220600	-0.028875
	O371	O	0.512486	0.178631	-0.011265
	C372	C	0.454595	0.083456	0.006547
	C373	C	0.490250	0.109223	-0.000358
	N374	N	0.479829	0.080445	0.003522
	O375	O	0.510632	0.114367	-0.001063
	O376	O	0.440845	0.064022	0.012984
	C377	C	0.408376	0.164906	-0.015166
	C378	C	0.403921	0.119515	0.001146
	N379	N	0.391981	0.142471	-0.006454
	O380	O	0.394298	0.097593	0.008944
	O381	O	0.403831	0.185013	-0.025417
	F382	F	0.648100	0.822719	-0.073822
	C383	C	0.651430	0.837917	-0.037425
	C384	C	0.674319	0.821200	-0.043031
	F385	F	0.692732	0.790057	-0.084507
	C386	C	0.678337	0.836319	-0.005729
	C387	C	0.659279	0.869906	0.037167
	F388	F	0.663390	0.885793	0.072824
	C389	C	0.636177	0.886561	0.042934
	F390	F	0.618202	0.918617	0.084028
	C391	C	0.631565	0.869820	0.005946
	F392	F	0.749811	0.700618	0.060943
	C393	C	0.749673	0.665796	0.028036
	C394	C	0.749568	0.634598	0.031213
	F395	F	0.749966	0.639353	0.066735
	C396	C	0.749130	0.597971	-0.002355
	C397	C	0.749421	0.593100	-0.039919
	F398	F	0.749105	0.558330	-0.072613
	C399	C	0.749996	0.624098	-0.043523
	F400	F	0.750461	0.618730	-0.079892
	C401	C	0.750014	0.660943	-0.009577
	F402	F	0.596402	0.484614	0.137836
	C403	C	0.620854	0.464118	0.102335
	C404	C	0.641765	0.479242	0.105061
	F405	F	0.637486	0.513664	0.143537
	C406	C	0.667193	0.458949	0.067186
	C407	C	0.671823	0.420637	0.029584
	F408	F	0.696381	0.399086	-0.005226
	C409	C	0.651054	0.405146	0.027336
	F410	F	0.655735	0.368690	-0.009009
	C411	C	0.625195	0.428340	0.061801
	F412	F	0.469755	0.084850	0.080224
	C413	C	0.488908	0.054107	0.039367
	C414	C	0.503186	0.025473	0.036243
	F415	F	0.497296	0.028799	0.074237
	C416	C	0.523368	-0.006916	-0.006224
	C417	C	0.529784	-0.008572	-0.044947
	F418	F	0.549804	-0.038360	-0.085446
	C419	C	0.515328	0.019865	-0.041850
	F420	F	0.521396	0.017004	-0.079636
	C421	C	0.494289	0.051252	0.000317
	F422	F	0.556256	0.242546	-0.095816
	C423	C	0.534184	0.252958	-0.058187
	C424	C	0.520518	0.225527	-0.059654
	F425	F	0.530088	0.188880	-0.098601
	C426	C	0.497160	0.235860	-0.020917
	C427	C	0.487577	0.274688	0.019030
	F428	F	0.465073	0.285402	0.056234
	C429	C	0.501331	0.302054	0.020577
	F430	F	0.491997	0.338950	0.059205
	C431	C	0.525005	0.291386	-0.017861
	F432	F	0.166467	0.627366	0.253425
	C433	C	0.159604	0.614284	0.221188
	C434	C	0.136910	0.635924	0.231025
	F435	F	0.121775	0.669651	0.272717
	C436	C	0.129833	0.622401	0.197255
	C437	C	0.146802	0.588460	0.152794
	F438	F	0.141188	0.576714	0.119354
	C439	C	0.169108	0.566534	0.143276
	F440	F	0.184884	0.533734	0.100943
	C441	C	0.175325	0.578537	0.177710
	C442	C	0.041515	0.664042	0.174843
	C443	C	0.059865	0.680183	0.187552
	C444	C	0.074834	0.661254	0.194760
	C445	C	0.070031	0.627808	0.191716
	C446	C	0.051171	0.612230	0.180110
	C447	C	0.037502	0.629371	0.170117
	C448	C	0.058979	0.717779	0.191543
	C449	C	0.028679	0.690241	0.169420
	N450	N	0.039217	0.722774	0.181559
	O451	O	0.012858	0.685931	0.156656
	O452	O	0.071481	0.740605	0.201621
	C453	C	0.087169	0.614983	0.203792
	C454	C	0.097774	0.668023	0.203565
	N455	N	0.104689	0.638253	0.207270
	O456	O	0.109221	0.692203	0.206081
	O457	O	0.086999	0.590384	0.210273
	C458	C	0.019803	0.604779	0.156643
	C459	C	0.042907	0.576526	0.173713
	N460	N	0.024171	0.573326	0.159284
	O461	O	0.049766	0.554309	0.179785
	O462	O	0.004906	0.609225	0.145168
	C463	C	0.227147	0.509401	0.157741
	C464	C	0.241633	0.528933	0.141741
	C465	C	0.268656	0.520962	0.125920
	C466	C	0.281311	0.493672	0.126312
	C467	C	0.266733	0.473998	0.142800
	C468	C	0.239802	0.481768	0.158282
	C469	C	0.223584	0.556905	0.145232
	C470	C	0.198737	0.525566	0.173876
	N471	N	0.197915	0.555298	0.167221
	O472	O	0.179764	0.516536	0.189291
	O473	O	0.228687	0.576643	0.131623
	C474	C	0.309570	0.494439	0.110807
	C475	C	0.288198	0.538586	0.108329
	N476	N	0.312339	0.522395	0.100908
	O477	O	0.284713	0.562395	0.102049
	O478	O	0.326960	0.476748	0.108110
	C479	C	0.229574	0.456140	0.172887
	C480	C	0.274625	0.443131	0.147143
	N481	N	0.251439	0.433416	0.165145
	O482	O	0.295777	0.428505	0.138194
	O483	O	0.207591	0.453885	0.188229
	F484	F	0.010774	0.795113	0.269295
	C485	C	0.012686	0.791910	0.233130
	C486	C	-0.001618	0.823141	0.240197
	F487	F	-0.016124	0.856324	0.282526
	C488	C	-0.001189	0.820223	0.203597
	C489	C	0.016848	0.787441	0.159066
	F490	F	0.019661	0.785783	0.123277
	C491	C	0.031694	0.756547	0.151854
	F492	F	0.048925	0.725439	0.109282
	C493	C	0.028527	0.757262	0.188785
	F494	F	-0.026286	0.585070	0.221626
	C495	C	-0.012467	0.548598	0.182921
	C496	C	-0.022399	0.516927	0.176492
	F497	F	-0.045711	0.523022	0.209296
	C498	C	-0.008197	0.478595	0.136052
	C499	C	0.015738	0.472906	0.101557
	F500	F	0.028851	0.437004	0.061573
	C501	C	0.026079	0.504340	0.108637
	F502	F	0.049610	0.497777	0.076011
	C503	C	0.012240	0.542499	0.149595
	F504	F	0.362555	0.484952	0.021396
	C505	C	0.358459	0.519454	0.059625
	C506	C	0.379508	0.534326	0.061976
	F507	F	0.403867	0.513713	0.026189
	C508	C	0.375385	0.570142	0.102282
	C509	C	0.349597	0.593510	0.137005
	F510	F	0.345104	0.629958	0.173185
	C511	C	0.328707	0.578214	0.135178
	F512	F	0.304229	0.599945	0.170222
	C513	C	0.333130	0.539915	0.097766
	F514	F	0.249831	0.299883	0.106617
	C515	C	0.249958	0.334712	0.139529
	C516	C	0.250301	0.365804	0.136143
	F517	F	0.249887	0.361065	0.100641
	C518	C	0.250732	0.402431	0.169717
	C519	C	0.250412	0.407310	0.207303
	F520	F	0.250638	0.442122	0.240074
	C521	C	0.249700	0.376378	0.211028
	F522	F	0.249002	0.381864	0.247600
	C523	C	0.249594	0.339573	0.177161
	C524	C	0.945174	0.925978	0.184186
	C525	C	0.965629	0.919462	0.190818
	C526	C	0.966915	0.894060	0.202356
	C527	C	0.947144	0.876219	0.209053
	C528	C	0.925300	0.885047	0.205947
	C529	C	0.924590	0.908991	0.192465
	C530	C	0.984607	0.941160	0.180864
	C531	C	0.950975	0.951908	0.168360
	N532	N	0.975028	0.959927	0.167197
	O533	O	0.938636	0.963887	0.157983
	O534	O	1.004182	0.943741	0.184098
	C535	C	0.955373	0.848279	0.216964
	C536	C	0.988380	0.878389	0.205433
	N537	N	0.981081	0.849150	0.211350
	O538	O	1.008282	0.887124	0.203262
	O539	O	0.943991	0.827908	0.225809
	C540	C	0.900778	0.908517	0.186228
	C541	C	0.901415	0.870180	0.210953
	N542	N	0.887407	0.885158	0.198556
	O543	O	0.894344	0.849614	0.222889
	O544	O	0.893895	0.923187	0.172205
	C545	C	0.932562	0.391208	0.131117
	C546	C	0.930625	0.361470	0.136666
	C547	C	0.950612	0.346812	0.139723
	C548	C	0.971512	0.363071	0.138719
	C549	C	0.972894	0.393777	0.134360
	C550	C	0.953441	0.407594	0.130470
	C551	C	0.905057	0.352535	0.139035
	C552	C	0.909993	0.400168	0.126124
	N553	N	0.893573	0.377279	0.132833
	O554	O	0.905956	0.421200	0.116602
	O555	O	0.895161	0.329882	0.144948
	C556	C	0.990362	0.340991	0.140601
	C557	C	0.955160	0.314283	0.143780
	N558	N	0.980056	0.310933	0.141606
	O559	O	0.941496	0.294013	0.148076
	O560	O	1.010509	0.345913	0.141068
	C561	C	0.959534	0.440161	0.126343
	C562	C	0.991588	0.418635	0.135223
	N563	N	0.982165	0.446389	0.130865
	O564	O	1.010512	0.417543	0.139769
	O565	O	0.948088	0.458270	0.120306
	C566	C	0.450452	0.625562	0.178345
	C567	C	0.437560	0.633945	0.160498
	C568	C	0.422579	0.609961	0.143961
	C569	C	0.420958	0.577994	0.145560
	C570	C	0.434687	0.568774	0.161898
	C571	C	0.449427	0.592485	0.178373
	C572	C	0.444578	0.668573	0.161102
	C573	C	0.465949	0.654340	0.191003
	N574	N	0.461829	0.679306	0.179667
	O575	O	0.479780	0.656709	0.207038
	O576	O	0.438265	0.684409	0.147687
	C577	C	0.404065	0.557324	0.126110
	C578	C	0.406322	0.610830	0.123219
	N579	N	0.395859	0.578050	0.113119
	O580	O	0.402425	0.633648	0.115916
	O581	O	0.397555	0.529030	0.122397
	C582	C	0.462294	0.574782	0.192402
	C583	C	0.437728	0.534836	0.164059
	N584	N	0.455411	0.539199	0.180942
	O585	O	0.428189	0.507987	0.153472
	O586	O	0.475676	0.586703	0.210179
	C587	C	0.270446	0.228524	0.185668
	C588	C	0.256162	0.204983	0.194391
	C589	C	0.230366	0.209261	0.201716
	C590	C	0.219216	0.237139	0.200380
	C591	C	0.233169	0.262145	0.193720
	C592	C	0.258832	0.257542	0.185790
	C593	C	0.273561	0.177120	0.192331
	C594	C	0.297596	0.216065	0.176976
	N595	N	0.298627	0.183870	0.179367
	O596	O	0.315684	0.229436	0.169512
	O597	O	0.268317	0.154139	0.201066
	C598	C	0.192423	0.233426	0.206277
	C599	C	0.210983	0.186684	0.208544
	N600	N	0.188682	0.202294	0.210396
	O601	O	0.213100	0.160203	0.211430
	O602	O	0.176744	0.251491	0.206198
	C603	C	0.269085	0.287050	0.177927
	C604	C	0.226160	0.294311	0.190638
	N605	N	0.248458	0.308426	0.181512
	O606	O	0.206191	0.306852	0.194455
	O607	O	0.290217	0.292827	0.169986
	F608	F	0.836401	0.923580	0.274290
	C609	C	0.839733	0.893066	0.233704
	C610	C	0.818216	0.879849	0.230584
	F611	F	0.794383	0.898520	0.268042
	C612	C	0.821202	0.847413	0.188821
	C613	C	0.846073	0.830372	0.149806
	F614	F	0.849273	0.800710	0.108929
	C615	C	0.867530	0.843729	0.152906
	F616	F	0.891122	0.826795	0.115106
	C617	C	0.864896	0.874611	0.195089
	F618	F	0.023326	-0.074235	0.086767
	C619	C	0.013595	-0.034847	0.115613
	C620	C	0.028696	-0.012049	0.106592
	F621	F	0.052161	-0.029618	0.068459
	C622	C	0.019648	0.029162	0.137175
	C623	C	-0.005580	0.046874	0.175600
	F624	F	-0.015005	0.086306	0.204561
	C625	C	-0.020927	0.024091	0.184123
	F626	F	-0.044983	0.041800	0.221001
	C627	C	-0.011339	-0.017111	0.154805
	F628	F	0.968965	0.312702	0.216883
	C629	C	0.988234	0.282321	0.175810
	C630	C	1.002435	0.253181	0.172011
	F631	F	0.996559	0.256155	0.209795
	C632	C	1.022750	0.221110	0.129336
	C633	C	1.028923	0.219802	0.090910
	F634	F	1.048750	0.190093	0.050074
	C635	C	1.014708	0.248969	0.094716
	F636	F	1.020882	0.246762	0.057278
	C637	C	0.994019	0.280554	0.137269
	F638	F	0.883964	0.342026	0.059232
	C639	C	0.864406	0.370327	0.101387
	C640	C	0.841060	0.386465	0.107546
	F641	F	0.838069	0.373215	0.071191
	C642	C	0.820735	0.416902	0.151471
	C643	C	0.823095	0.427404	0.189288
	F644	F	0.802717	0.453181	0.231591
	C645	C	0.846539	0.411453	0.183055
	F646	F	0.849000	0.422350	0.219257
	C647	C	0.867983	0.384468	0.139001
	F648	F	0.508475	0.660299	0.104329
	C649	C	0.499147	0.697042	0.143197
	C650	C	0.512880	0.724498	0.145095
	F651	F	0.535304	0.714072	0.107933
	C652	C	0.503344	0.763135	0.185347
	C653	C	0.480081	0.773158	0.224036
	F654	F	0.470547	0.809621	0.263249
	C655	C	0.466495	0.745587	0.222271
	F656	F	0.444464	0.755742	0.259812
	C657	C	0.475609	0.707372	0.181643
	F658	F	0.490209	0.471282	0.094698
	C659	C	0.486217	0.473781	0.131539
	C660	C	0.499506	0.442472	0.125533
	F661	F	0.515057	0.409541	0.083311
	C662	C	0.497289	0.445468	0.163232
	C663	C	0.479632	0.479164	0.207367
	F664	F	0.476946	0.482272	0.243903
	C665	C	0.465223	0.509660	0.213437
	F666	F	0.448119	0.541391	0.255660
	C667	C	0.468871	0.507814	0.175638
	F668	F	0.198422	0.128548	0.132026
	C669	C	0.173454	0.149632	0.165095
	C670	C	0.153029	0.136873	0.157205
	F671	F	0.158501	0.103360	0.116867
	C672	C	0.126826	0.159322	0.190518
	C673	C	0.121514	0.192685	0.233637
	F674	F	0.096577	0.213558	0.266909
	C675	C	0.141985	0.204822	0.241931
	F676	F	0.136633	0.236226	0.283535
	C677	C	0.168183	0.184960	0.206703
	F678	F	0.306502	0.209791	0.252053
	C679	C	0.324967	0.178773	0.210522
	C680	C	0.347911	0.162133	0.204849
	F681	F	0.351154	0.177073	0.241294
	C682	C	0.367817	0.130349	0.161435
	C683	C	0.363279	0.113819	0.124390
	F684	F	0.381318	0.081909	0.083215
	C685	C	0.340192	0.130535	0.130172
	F686	F	0.336171	0.114880	0.094446
	C687	C	0.321057	0.163945	0.173159
	C688	C	0.763423	0.755875	0.172805
	C689	C	0.741913	0.753098	0.165932
	C690	C	0.730853	0.781503	0.164669
	C691	C	0.741523	0.812278	0.169579
	C692	C	0.763540	0.814960	0.176171
	C693	C	0.774395	0.786812	0.177546
	C694	C	0.734590	0.717159	0.161259
	C695	C	0.769788	0.722829	0.175166
	N696	N	0.752428	0.699643	0.166122
	O697	O	0.785332	0.716590	0.184601
	O698	O	0.717226	0.704406	0.155012
	C699	C	0.724575	0.838263	0.168452
	C700	C	0.707482	0.785893	0.158988
	N701	N	0.704020	0.821184	0.163116
	O702	O	0.693598	0.764711	0.152140
	O703	O	0.726827	0.867624	0.171093
	C704	C	0.797523	0.796798	0.184707
	C705	C	0.780101	0.843288	0.181024
	N706	N	0.800257	0.830727	0.185989
	O707	O	0.777980	0.871030	0.180263
	O708	O	0.811747	0.779935	0.188285
	C709	C	0.046784	0.104201	0.125437
	C710	C	0.062158	0.095601	0.139767
	C711	C	0.078277	0.119208	0.152472
	C712	C	0.078229	0.151623	0.151659
	C713	C	0.062461	0.160595	0.137851
	C714	C	0.047053	0.136675	0.124119
	C715	C	0.054832	0.063120	0.143869
	C716	C	0.030296	0.076130	0.117450
	N717	N	0.035475	0.052795	0.130123
	O718	O	0.014873	0.073188	0.104154
	O719	O	0.062238	0.048875	0.157819
	C720	C	0.096908	0.171547	0.166924
	C721	C	0.095973	0.118727	0.171050
	N722	N	0.106818	0.150763	0.178476
	O723	O	0.100559	0.096649	0.178895
	O724	O	0.103378	0.199230	0.168746
	C725	C	0.031394	0.154743	0.113762
	C726	C	0.056118	0.195966	0.139401
	N727	N	0.036879	0.191185	0.125502
	O728	O	0.064252	0.224250	0.151003
	O729	O	0.017217	0.142243	0.097815
	C730	C	0.771922	0.479412	0.158237
	C731	C	0.759356	0.451706	0.159265
	C732	C	0.735347	0.452232	0.159558
	C733	C	0.724156	0.480013	0.158111
	C734	C	0.736726	0.508276	0.157405
	C735	C	0.760316	0.508257	0.158072
	C736	C	0.776055	0.424452	0.158857
	C737	C	0.797120	0.471138	0.157826
	N738	N	0.798732	0.437165	0.157105
	O739	O	0.813472	0.488438	0.158008
	O740	O	0.772118	0.397154	0.160149
	C741	C	0.698487	0.473192	0.159452
	C742	C	0.718106	0.425674	0.159649
	N743	N	0.696313	0.439614	0.159430
	O744	O	0.720971	0.397967	0.160288
	O745	O	0.682091	0.491751	0.161125
	C746	C	0.768904	0.541828	0.157758
	C747	C	0.730326	0.540299	0.153650
	N748	N	0.749941	0.560299	0.155523
	O749	O	0.713137	0.547816	0.147947
	O750	O	0.787711	0.552637	0.159320
	C751	C	0.550272	0.885426	0.165907
	C752	C	0.529090	0.869791	0.168970
	C753	C	0.527624	0.840351	0.175351
	C754	C	0.546959	0.827356	0.180104
	C755	C	0.568641	0.842562	0.176362
	C756	C	0.570648	0.870899	0.168436
	C757	C	0.509998	0.890548	0.166205
	C758	C	0.545486	0.916681	0.159957
	N759	N	0.520299	0.919578	0.162788
	O760	O	0.559129	0.936374	0.153942
	O761	O	0.489667	0.885313	0.166719
	C762	C	0.539721	0.796296	0.187054
	C763	C	0.507443	0.818395	0.179036
	N764	N	0.515958	0.791865	0.185394
	O765	O	0.487893	0.820813	0.176417
	O766	O	0.550951	0.778283	0.193411
	C767	C	0.596148	0.880553	0.165371
	C768	C	0.591777	0.834794	0.181116
	N769	N	0.608054	0.857570	0.172983
	O770	O	0.596212	0.814776	0.191541
	O771	O	0.605715	0.902667	0.157895
	C772	C	0.555095	0.333819	0.172358
	C773	C	0.532722	0.342760	0.171168
	C774	C	0.529472	0.370327	0.163241
	C775	C	0.549212	0.387762	0.154718
	C776	C	0.571842	0.378653	0.155495
	C777	C	0.574652	0.352521	0.165271
	C778	C	0.515464	0.318398	0.178867
	C779	C	0.551993	0.304887	0.183795
	N780	N	0.527969	0.296206	0.186247
	O781	O	0.566232	0.291015	0.189990
	O782	O	0.495166	0.316069	0.178120
	C783	C	0.540079	0.417123	0.149566
	C784	C	0.507046	0.387386	0.163036
	N785	N	0.514250	0.416617	0.156664
	O786	O	0.486624	0.379781	0.167543
	O787	O	0.551047	0.438169	0.141441
	C788	C	0.600116	0.351052	0.166381
	C789	C	0.595500	0.393610	0.148402
	N790	N	0.611717	0.376304	0.155652
	O791	O	0.600861	0.416262	0.139111
	O792	O	0.609438	0.333876	0.175684
	C793	C	0.447222	0.148867	0.179650
	C794	C	0.462471	0.131977	0.187745
	C795	C	0.459494	0.097436	0.183891
	C796	C	0.441153	0.080016	0.172348
	C797	C	0.424432	0.098662	0.167195
	C798	C	0.427964	0.132419	0.169939
	C799	C	0.481221	0.155604	0.197285
	C800	C	0.455952	0.183561	0.182900
	N801	N	0.476621	0.185925	0.193297
	O802	O	0.448384	0.205235	0.176798
	O803	O	0.497183	0.150882	0.206771
	C804	C	0.444155	0.042179	0.167917
	C805	C	0.474097	0.072586	0.188731
	N806	N	0.464841	0.039062	0.177071
	O807	O	0.490184	0.078705	0.201107
	O808	O	0.432579	0.017913	0.158061
	C809	C	0.408734	0.145077	0.160881
	C810	C	0.401705	0.089629	0.158059
	N811	N	0.392658	0.119499	0.156114
	O812	O	0.391954	0.063550	0.153862
	O813	O	0.406481	0.171232	0.157472
	F814	F	0.655429	0.817865	0.090152
	C815	C	0.656352	0.832068	0.128457
	C816	C	0.680283	0.823267	0.125911
	F817	F	0.702283	0.800874	0.085109
	C818	C	0.681603	0.837319	0.165557
	C819	C	0.658931	0.864350	0.207847
	F820	F	0.660197	0.881546	0.246396
	C821	C	0.635024	0.873073	0.210305
	F822	F	0.613501	0.898445	0.251073
	C823	C	0.633028	0.855177	0.170628
	F824	F	0.716112	0.700505	0.238444
	C825	C	0.733207	0.665782	0.199975
	C826	C	0.732038	0.631450	0.197044
	F827	F	0.713382	0.633436	0.232439
	C828	C	0.750076	0.594872	0.157504
	C829	C	0.768869	0.593710	0.120660
	F830	F	0.785769	0.558929	0.081908
	C831	C	0.770077	0.628091	0.123658
	F832	F	0.788485	0.626069	0.088046
	C833	C	0.752169	0.664709	0.163353
	F834	F	0.611255	0.429545	0.237659
	C835	C	0.632837	0.417194	0.198437
	C836	C	0.653253	0.434198	0.199361
	F837	F	0.651296	0.462828	0.239564
	C838	C	0.675848	0.421687	0.158548
	C839	C	0.678072	0.390351	0.116895
	F840	F	0.700043	0.376504	0.077540
	C841	C	0.657585	0.373539	0.115978
	F842	F	0.659890	0.343997	0.075836
	C843	C	0.634375	0.387641	0.156703
	F844	F	0.450379	0.038479	0.251880
	C845	C	0.470332	0.008619	0.211338
	C846	C	0.484898	-0.019699	0.208259
	F847	F	0.478928	-0.016750	0.246064
	C848	C	0.505801	-0.051246	0.166022
	C849	C	0.510983	-0.054313	0.126924
	F850	F	0.529975	-0.085240	0.086014
	C851	C	0.496682	-0.025695	0.130059
	F852	F	0.502329	-0.029283	0.092000
	C853	C	0.476579	0.006781	0.172556
	F854	F	0.552701	0.215221	0.119430
	C855	C	0.529307	0.227586	0.156008
	C856	C	0.516297	0.200297	0.157484
	F857	F	0.527255	0.161849	0.122406
	C858	C	0.491584	0.212693	0.195043
	C859	C	0.481200	0.252649	0.232601
	F860	F	0.458537	0.264893	0.270275
	C861	C	0.494045	0.279980	0.230938
	F862	F	0.483206	0.318146	0.266856
	C863	C	0.517776	0.267984	0.191855
	F864	F	0.161946	0.627308	0.429495
	C865	C	0.158898	0.614155	0.393213
	C866	C	0.135492	0.630279	0.399514
	F867	F	0.116031	0.658732	0.441703
	C868	C	0.131842	0.616235	0.361988
	C869	C	0.153227	0.589183	0.317884
	F870	F	0.150693	0.578343	0.281761
	C871	C	0.176684	0.573114	0.311522
	F872	F	0.196998	0.547256	0.269171
	C873	C	0.179127	0.583584	0.349261
	C874	C	0.028126	0.637957	0.362904
	C875	C	0.049064	0.654146	0.361728
	C876	C	0.069079	0.639479	0.364733
	C877	C	0.067096	0.609876	0.370505
	C878	C	0.045977	0.593952	0.371988
	C879	C	0.026695	0.607390	0.367502
	C880	C	0.044556	0.686526	0.357422
	C881	C	0.009324	0.659872	0.360784
	N882	N	0.019659	0.689838	0.359580
	O883	O	-0.010811	0.654898	0.360290
	O884	O	0.058243	0.706724	0.352975
	C885	C	0.089703	0.600888	0.375404
	C886	C	0.094752	0.648198	0.361983
	N887	N	0.106219	0.623539	0.368306
	O888	O	0.104729	0.670645	0.355731
	O889	O	0.093694	0.580008	0.385135
	C890	C	0.008024	0.582498	0.366643
	C891	C	0.040121	0.561006	0.375471
	N892	N	0.017511	0.554705	0.370897
	O893	O	0.051710	0.542705	0.381143
	O894	O	-0.010929	0.583594	0.362171
	C895	C	0.228032	0.520627	0.341877
	C896	C	0.240448	0.548654	0.341513
	C897	C	0.264630	0.547746	0.340599
	C898	C	0.276107	0.519330	0.340907
	C899	C	0.262981	0.492102	0.343474
	C900	C	0.239411	0.492123	0.342740
	C901	C	0.223910	0.575694	0.341444
	C902	C	0.202640	0.529340	0.343022
	N903	N	0.201128	0.563206	0.343521
	O904	O	0.186106	0.512373	0.343416
	O905	O	0.228013	0.602716	0.339656
	C906	C	0.301861	0.525929	0.339285
	C907	C	0.282305	0.573517	0.339110
	N908	N	0.304241	0.559210	0.338754
	O909	O	0.279627	0.600955	0.337950
	O910	O	0.318202	0.507374	0.337712
	C911	C	0.230737	0.458673	0.343270
	C912	C	0.269543	0.459755	0.346643
	N913	N	0.249781	0.440013	0.345201
	O914	O	0.286930	0.451884	0.351750
	O915	O	0.211817	0.448071	0.342060
	F916	F	-0.020997	0.754245	0.443903
	C917	C	-0.014869	0.751920	0.406409
	C918	C	-0.029138	0.780988	0.410145
	F919	F	-0.048875	0.810836	0.451009
	C920	C	-0.023084	0.779468	0.371627
	C921	C	-0.002860	0.747265	0.328939
	F922	F	0.002934	0.744144	0.291096
	C923	C	0.011318	0.718132	0.325182
	F924	F	0.030547	0.687685	0.284107
	C925	C	0.005691	0.720149	0.363820
	F926	F	-0.029223	0.563938	0.439967
	C927	C	-0.016023	0.528041	0.400004
	C928	C	-0.026290	0.496532	0.392854
	F929	F	-0.049897	0.503050	0.425286
	C930	C	-0.012398	0.458406	0.351866
	C931	C	0.012332	0.452390	0.318656
	F932	F	0.026207	0.415944	0.279936
	C933	C	0.022238	0.484107	0.325224
	F934	F	0.045525	0.478109	0.292448
	C935	C	0.007935	0.522432	0.365614
	F936	F	0.349074	0.535569	0.258110
	C937	C	0.347347	0.564166	0.298118
	C938	C	0.367971	0.580756	0.298630
	F939	F	0.389421	0.568294	0.259204
	C940	C	0.366663	0.610279	0.340162
	C941	C	0.343572	0.624537	0.381108
	F942	F	0.341513	0.653982	0.421074
	C943	C	0.322946	0.607986	0.380607
	F944	F	0.301118	0.621931	0.420181
	C945	C	0.324885	0.576804	0.339150
	F946	F	0.283409	0.299755	0.262299
	C947	C	0.266353	0.334510	0.300764
	C948	C	0.267608	0.368835	0.303698
	F949	F	0.286153	0.366751	0.268141
	C950	C	0.249617	0.405452	0.343245
	C951	C	0.230914	0.406702	0.380222
	F952	F	0.214005	0.441499	0.418929
	C953	C	0.229690	0.372355	0.377294
	F954	F	0.211263	0.374431	0.412935
	C955	C	0.247490	0.335679	0.337535
	C956	C	0.937650	0.904645	0.360696
	C957	C	0.952574	0.896631	0.376034
	C958	C	0.952648	0.863756	0.376595
	C959	C	0.937474	0.839576	0.362362
	C960	C	0.921071	0.849218	0.349929
	C961	C	0.921499	0.881078	0.348076
	C962	C	0.969198	0.924526	0.383732
	C963	C	0.944748	0.937446	0.357131
	N964	N	0.964036	0.947851	0.371037
	O965	O	0.937270	0.951824	0.343366
	O966	O	0.984678	0.927384	0.396899
	C967	C	0.943528	0.804538	0.361521
	C968	C	0.968293	0.845750	0.387023
	N969	N	0.962789	0.809338	0.375381
	O970	O	0.982489	0.858260	0.402923
	O971	O	0.935213	0.776431	0.350371
	C972	C	0.903473	0.881941	0.330203
	C973	C	0.902555	0.829104	0.334306
	N974	N	0.892561	0.849992	0.322936
	O975	O	0.896225	0.801247	0.332176
	O976	O	0.898730	0.904194	0.322674
	C977	C	0.929940	0.372984	0.309374
	C978	C	0.925156	0.339500	0.306249
	C979	C	0.940129	0.320529	0.313411
	C980	C	0.958484	0.336648	0.326122
	C981	C	0.962754	0.371037	0.330293
	C982	C	0.948842	0.388497	0.320890
	C983	C	0.902193	0.332771	0.297502
	C984	C	0.912696	0.385978	0.297575
	N985	N	0.895215	0.362645	0.293988
	O986	O	0.912771	0.410727	0.291341
	O987	O	0.890782	0.308536	0.294875
	C988	C	0.971304	0.310429	0.331542
	C989	C	0.940958	0.282972	0.309507
	N990	N	0.960720	0.277944	0.319476
	O991	O	0.928421	0.260191	0.299492
	O992	O	0.987148	0.314694	0.344252
	C993	C	0.957060	0.424268	0.327444
	C994	C	0.980127	0.395991	0.344539
	N995	N	0.975724	0.427517	0.342027
	O996	O	0.994837	0.391716	0.356412
	O997	O	0.950227	0.446487	0.321352
	C998	C	0.468028	0.656048	0.326361
	C999	C	0.445981	0.664028	0.323883
	C1000	C	0.426302	0.645669	0.331615
	C1001	C	0.429013	0.619993	0.342030
	C1002	C	0.451966	0.610251	0.341648
	C1003	C	0.471354	0.628528	0.334321
	C1004	C	0.448922	0.693117	0.312686
	C1005	C	0.485339	0.680178	0.318174
	N1006	N	0.472855	0.702068	0.310453
	O1007	O	0.505638	0.682610	0.318896
	O1008	O	0.434654	0.706862	0.306428
	C1009	C	0.405626	0.604387	0.348308
	C1010	C	0.400902	0.646853	0.330262
	N1011	N	0.389404	0.621495	0.340891
	O1012	O	0.391545	0.663934	0.320901
	O1013	O	0.400443	0.581480	0.357241
	C1014	C	0.493971	0.611228	0.333953
	C1015	C	0.461049	0.581313	0.347375
	N1016	N	0.486871	0.581925	0.340252
	O1017	O	0.450063	0.560456	0.355864
	O1018	O	0.514439	0.618753	0.329145
	C1019	C	0.268791	0.219068	0.336508
	C1020	C	0.258127	0.188300	0.331654
	C1021	C	0.235901	0.185872	0.325660
	C1022	C	0.225409	0.213462	0.323197
	C1023	C	0.236145	0.244711	0.328527
	C1024	C	0.257471	0.247780	0.335917
	C1025	C	0.275100	0.162325	0.332751
	C1026	C	0.292240	0.214610	0.341979
	N1027	N	0.295719	0.179321	0.337855
	O1028	O	0.306162	0.235747	0.348680
	O1029	O	0.272815	0.133034	0.330262
	C1030	C	0.202126	0.203665	0.316487
	C1031	C	0.219604	0.157171	0.320115
	N1032	N	0.199447	0.169689	0.315126
	O1033	O	0.221886	0.129220	0.320465
	O1034	O	0.187773	0.220665	0.313233
	C1035	C	0.265033	0.283364	0.339845
	C1036	C	0.229835	0.277626	0.325935
	N1037	N	0.247219	0.300795	0.334870
	O1038	O	0.214303	0.283798	0.316443
	O1039	O	0.282525	0.295961	0.345712
	F1040	F	0.840898	0.897459	0.384698
	C1041	C	0.846330	0.864037	0.344316
	C1042	C	0.825874	0.851275	0.336545
	F1043	F	0.800920	0.872460	0.369607
	C1044	C	0.831102	0.816025	0.294903
	C1045	C	0.857287	0.796124	0.259626
	F1046	F	0.862599	0.764776	0.218019
	C1047	C	0.877786	0.808169	0.267876
	F1048	F	0.902712	0.787245	0.234573
	C1049	C	0.872516	0.841496	0.310986
	F1050	F	0.014528	-0.085690	0.296626
	C1051	C	0.005127	-0.046257	0.325618
	C1052	C	0.020528	-0.023489	0.317183
	F1053	F	0.044570	-0.041214	0.280270
	C1054	C	0.010922	0.017708	0.346425
	C1055	C	-0.014038	0.035463	0.385570
	F1056	F	-0.023782	0.074849	0.414361
	C1057	C	-0.029140	0.012682	0.394622
	F1058	F	-0.052671	0.030266	0.432628
	C1059	C	-0.020119	-0.028527	0.364007
	F1060	F	0.951045	0.275455	0.391828
	C1061	C	0.968157	0.244208	0.349267
	C1062	C	0.982993	0.213343	0.342114
	F1063	F	0.980196	0.215076	0.377939
	C1064	C	1.000987	0.180490	0.297602
	C1065	C	1.001442	0.177531	0.260967
	F1066	F	1.015924	0.144297	0.218671
	C1067	C	0.987222	0.208792	0.267969
	F1068	F	0.989072	0.205476	0.231782
	C1069	C	0.971371	0.243460	0.312296
	F1070	F	0.878417	0.331048	0.228175
	C1071	C	0.863120	0.364668	0.269888
	C1072	C	0.840490	0.386232	0.279479
	F1073	F	0.833710	0.372982	0.247119
	C1074	C	0.824617	0.421896	0.322961
	C1075	C	0.830715	0.434016	0.357550
	F1076	F	0.814823	0.466770	0.399858
	C1077	C	0.853023	0.412257	0.348216
	F1078	F	0.858535	0.424135	0.381792
	C1079	C	0.870099	0.378350	0.303798
	F1080	F	0.517716	0.680604	0.230209
	C1081	C	0.506675	0.718735	0.266186
	C1082	C	0.519458	0.746252	0.264953
	F1083	F	0.542260	0.734214	0.227592
	C1084	C	0.508854	0.786183	0.302598
	C1085	C	0.484039	0.798326	0.339826
	F1086	F	0.472849	0.836742	0.374925
	C1087	C	0.471179	0.770819	0.341002
	F1088	F	0.447658	0.782961	0.377237
	C1089	C	0.482897	0.730468	0.305059
	F1090	F	0.524259	0.516510	0.252915
	C1091	C	0.521573	0.519450	0.289360
	C1092	C	0.535970	0.488839	0.283134
	F1093	F	0.553161	0.457261	0.240858
	C1094	C	0.532382	0.490554	0.320831
	C1095	C	0.515062	0.524540	0.364993
	F1096	F	0.511126	0.526925	0.401746
	C1097	C	0.501720	0.555911	0.371158
	F1098	F	0.486305	0.588874	0.413429
	C1099	C	0.503913	0.553070	0.333555
	F1100	F	0.205316	0.102024	0.232974
	C1101	C	0.181514	0.120535	0.270491
	C1102	C	0.159978	0.107408	0.267344
	F1103	F	0.163308	0.076893	0.226762
	C1104	C	0.134844	0.125726	0.306014
	C1105	C	0.132233	0.156505	0.348223
	F1106	F	0.108671	0.173321	0.386058
	C1107	C	0.153684	0.169882	0.351314
	F1108	F	0.150505	0.199464	0.392208
	C1109	C	0.178528	0.152950	0.312267
	F1110	F	0.297824	0.200245	0.415771
	C1111	C	0.319689	0.177420	0.374817
	C1112	C	0.343721	0.168697	0.372016
	F1113	F	0.344851	0.183164	0.410204
	C1114	C	0.366898	0.145089	0.329664
	C1115	C	0.364676	0.126921	0.290172
	F1116	F	0.386055	0.101183	0.249314
	C1117	C	0.340697	0.135754	0.292898
	F1118	F	0.339221	0.118322	0.254512
	C1119	C	0.318175	0.163139	0.335282
	C1120	C	0.766208	0.738673	0.307677
	C1121	C	0.740583	0.743109	0.315407
	C1122	C	0.728955	0.772053	0.315445
	C1123	C	0.743168	0.795748	0.306943
	C1124	C	0.768782	0.792018	0.300479
	C1125	C	0.780079	0.763841	0.301267
	C1126	C	0.730409	0.713476	0.323093
	C1127	C	0.773305	0.706395	0.310532
	N1128	N	0.751067	0.692137	0.319490
	O1129	O	0.793300	0.693866	0.306659
	O1130	O	0.709303	0.707614	0.330960
	C1131	C	0.725763	0.823504	0.308878
	C1132	C	0.701870	0.784227	0.323743
	N1133	N	0.700776	0.816477	0.321458
	O1134	O	0.683869	0.770624	0.330864
	O1135	O	0.730957	0.846600	0.300316
	C1136	C	0.806847	0.767626	0.295451
	C1137	C	0.788267	0.814320	0.293141
	N1138	N	0.810582	0.798724	0.291275
	O1139	O	0.786204	0.840625	0.289958
	O1140	O	0.822510	0.749637	0.295634
	C1141	C	0.033787	0.081707	0.311251
	C1142	C	0.054598	0.074274	0.316668
	C1143	C	0.075010	0.091683	0.309002
	C1144	C	0.074159	0.116022	0.296068
	C1145	C	0.052663	0.124099	0.291788
	C1146	C	0.032539	0.107096	0.299690
	C1147	C	0.048679	0.048552	0.332774
	C1148	C	0.014944	0.059659	0.320661
	N1149	N	0.024585	0.040651	0.334039
	O1150	O	-0.004588	0.057037	0.317294
	O1151	O	0.060983	0.036591	0.343210
	C1152	C	0.098283	0.130323	0.290310
	C1153	C	0.098892	0.091961	0.315018
	N1154	N	0.112311	0.115244	0.302601
	O1155	O	0.105782	0.077233	0.328981
	O1156	O	0.105480	0.150624	0.278021
	C1157	C	0.011272	0.122415	0.295981
	C1158	C	0.044365	0.152362	0.284323
	N1159	N	0.018664	0.151532	0.289889
	O1160	O	0.055713	0.172895	0.275762
	O1161	O	-0.008569	0.113569	0.297896
	C1162	C	0.772812	0.490730	0.342535
	C1163	C	0.758263	0.471659	0.359229
	C1164	C	0.731285	0.479341	0.374633
	C1165	C	0.718775	0.505904	0.373153
	C1166	C	0.733132	0.526728	0.358373
	C1167	C	0.760020	0.519214	0.343264
	C1168	C	0.776376	0.443275	0.355126
	C1169	C	0.801174	0.474898	0.326890
	N1170	N	0.802031	0.444994	0.333273
	O1171	O	0.820100	0.484220	0.311925
	O1172	O	0.771317	0.423222	0.368312
	C1173	C	0.690566	0.504945	0.388355
	C1174	C	0.711919	0.460848	0.390924
	N1175	N	0.687866	0.476710	0.397826
	O1176	O	0.715461	0.436708	0.396719
	O1177	O	0.673173	0.522665	0.391085
	C1178	C	0.770296	0.544515	0.328167
	C1179	C	0.725316	0.557110	0.353321
	N1180	N	0.748466	0.566993	0.335554
	O1181	O	0.704234	0.571327	0.361680
	O1182	O	0.792279	0.546764	0.312812
	C1183	C	0.558596	0.919866	0.327547
	C1184	C	0.540490	0.902218	0.315387
	C1185	C	0.537582	0.867542	0.311240
	C1186	C	0.552690	0.850726	0.319596
	C1187	C	0.571940	0.867137	0.329376
	C1188	C	0.574977	0.901565	0.333509
	C1189	C	0.526045	0.927005	0.310281
	C1190	C	0.555506	0.957859	0.332329
	N1191	N	0.535086	0.960760	0.322545
	O1192	O	0.566837	0.982379	0.342860
	O1193	O	0.510220	0.920693	0.297320
	C1194	C	0.544173	0.815701	0.315655
	C1195	C	0.519056	0.843651	0.301058
	N1196	N	0.523683	0.813185	0.304822
	O1197	O	0.503241	0.848288	0.291264
	O1198	O	0.551775	0.793884	0.321555
	C1199	C	0.597745	0.910511	0.342541
	C1200	C	0.590740	0.854969	0.339485
	N1201	N	0.606732	0.880675	0.344581
	O1202	O	0.592761	0.829072	0.343375
	O1203	O	0.607552	0.936523	0.346634
	C1204	C	0.563650	0.364051	0.335486
	C1205	C	0.550341	0.373006	0.318544
	C1206	C	0.551830	0.405647	0.317704
	C1207	C	0.566852	0.429017	0.333669
	C1208	C	0.579839	0.420470	0.351403
	C1209	C	0.578628	0.388004	0.352081
	C1210	C	0.534918	0.344159	0.305678
	C1211	C	0.556238	0.329861	0.335596
	N1212	N	0.538910	0.319275	0.317190
	O1213	O	0.562359	0.314210	0.349346
	O1214	O	0.521205	0.341719	0.289425
	C1215	C	0.563540	0.463331	0.332221
	C1216	C	0.538977	0.423463	0.303758
	N1217	N	0.545859	0.459067	0.315353
	O1218	O	0.525617	0.411595	0.285928
	O1219	O	0.572922	0.490337	0.343235
	C1220	C	0.594447	0.387495	0.373631
	C1221	C	0.596908	0.440886	0.370545
	N1222	N	0.604893	0.420298	0.383865
	O1223	O	0.603664	0.468935	0.373883
	O1224	O	0.598078	0.364880	0.381346
	C1225	C	0.453393	0.172010	0.318497
	C1226	C	0.472733	0.159090	0.323298
	C1227	C	0.471202	0.129859	0.330024
	C1228	C	0.449926	0.114421	0.333463
	C1229	C	0.429549	0.128899	0.330905
	C1230	C	0.431790	0.156630	0.322034
	C1231	C	0.492947	0.180963	0.319394
	C1232	C	0.460713	0.202813	0.311113
	N1233	N	0.484480	0.207289	0.312740
	O1234	O	0.449541	0.220600	0.304459
	O1235	O	0.512486	0.178631	0.322068
	C1236	C	0.454595	0.083456	0.339880
	C1237	C	0.490250	0.109223	0.332976
	N1238	N	0.479829	0.080445	0.336855
	O1239	O	0.510632	0.114367	0.332270
	O1240	O	0.440845	0.064022	0.346317
	C1241	C	0.408376	0.164906	0.318167
	C1242	C	0.403921	0.119515	0.334480
	N1243	N	0.391981	0.142471	0.326879
	O1244	O	0.394298	0.097593	0.342277
	O1245	O	0.403831	0.185013	0.307917
	F1246	F	0.648100	0.822719	0.259511
	C1247	C	0.651430	0.837917	0.295908
	C1248	C	0.674319	0.821200	0.290302
	F1249	F	0.692732	0.790057	0.248826
	C1250	C	0.678337	0.836319	0.327604
	C1251	C	0.659279	0.869906	0.370500
	F1252	F	0.663390	0.885793	0.406157
	C1253	C	0.636177	0.886561	0.376267
	F1254	F	0.618202	0.918617	0.417361
	C1255	C	0.631565	0.869820	0.339279
	F1256	F	0.749811	0.700618	0.394277
	C1257	C	0.749673	0.665796	0.361370
	C1258	C	0.749568	0.634598	0.364547
	F1259	F	0.749966	0.639353	0.400068
	C1260	C	0.749130	0.597971	0.330978
	C1261	C	0.749421	0.593100	0.293414
	F1262	F	0.749105	0.558330	0.260721
	C1263	C	0.749996	0.624098	0.289811
	F1264	F	0.750461	0.618730	0.253442
	C1265	C	0.750014	0.660943	0.323756
	F1266	F	0.596402	0.484614	0.471170
	C1267	C	0.620854	0.464118	0.435669
	C1268	C	0.641765	0.479242	0.438395
	F1269	F	0.637486	0.513664	0.476870
	C1270	C	0.667193	0.458949	0.400519
	C1271	C	0.671823	0.420637	0.362917
	F1272	F	0.696381	0.399086	0.328108
	C1273	C	0.651054	0.405146	0.360669
	F1274	F	0.655735	0.368690	0.324324
	C1275	C	0.625195	0.428340	0.395135
	F1276	F	0.469755	0.084850	0.413558
	C1277	C	0.488908	0.054107	0.372700
	C1278	C	0.503186	0.025473	0.369577
	F1279	F	0.497296	0.028799	0.407571
	C1280	C	0.523368	-0.006916	0.327109
	C1281	C	0.529784	-0.008572	0.288386
	F1282	F	0.549804	-0.038360	0.247887
	C1283	C	0.515328	0.019865	0.291484
	F1284	F	0.521396	0.017004	0.253698
	C1285	C	0.494289	0.051252	0.333651
	F1286	F	0.556256	0.242546	0.237517
	C1287	C	0.534184	0.252958	0.275146
	C1288	C	0.520518	0.225527	0.273679
	F1289	F	0.530088	0.188880	0.234732
	C1290	C	0.497160	0.235860	0.312416
	C1291	C	0.487577	0.274688	0.352363
	F1292	F	0.465073	0.285402	0.389568
	C1293	C	0.501331	0.302054	0.353911
	F1294	F	0.491997	0.338950	0.392538
	C1295	C	0.525005	0.291386	0.315473
	F1296	F	0.166467	0.627366	0.586758
	C1297	C	0.159604	0.614284	0.554521
	C1298	C	0.136910	0.635924	0.564359
	F1299	F	0.121775	0.669651	0.606050
	C1300	C	0.129833	0.622401	0.530589
	C1301	C	0.146802	0.588460	0.486127
	F1302	F	0.141188	0.576714	0.452687
	C1303	C	0.169108	0.566534	0.476609
	F1304	F	0.184884	0.533734	0.434277
	C1305	C	0.175325	0.578537	0.511044
	C1306	C	0.041515	0.664042	0.508176
	C1307	C	0.059865	0.680183	0.520886
	C1308	C	0.074834	0.661254	0.528093
	C1309	C	0.070031	0.627808	0.525049
	C1310	C	0.051171	0.612230	0.513443
	C1311	C	0.037502	0.629371	0.503450
	C1312	C	0.058979	0.717779	0.524876
	C1313	C	0.028679	0.690241	0.502753
	N1314	N	0.039217	0.722774	0.514892
	O1315	O	0.012858	0.685931	0.489989
	O1316	O	0.071481	0.740605	0.534954
	C1317	C	0.087169	0.614983	0.537125
	C1318	C	0.097774	0.668023	0.536898
	N1319	N	0.104689	0.638253	0.540603
	O1320	O	0.109221	0.692203	0.539414
	O1321	O	0.086999	0.590384	0.543606
	C1322	C	0.019803	0.604779	0.489977
	C1323	C	0.042907	0.576526	0.507046
	N1324	N	0.024171	0.573326	0.492617
	O1325	O	0.049766	0.554309	0.513118
	O1326	O	0.004906	0.609225	0.478501
	C1327	C	0.227147	0.509401	0.491074
	C1328	C	0.241633	0.528933	0.475074
	C1329	C	0.268656	0.520962	0.459254
	C1330	C	0.281311	0.493672	0.459646
	C1331	C	0.266733	0.473998	0.476133
	C1332	C	0.239802	0.481768	0.491615
	C1333	C	0.223584	0.556905	0.478566
	C1334	C	0.198737	0.525566	0.507209
	N1335	N	0.197915	0.555298	0.500554
	O1336	O	0.179764	0.516536	0.522624
	O1337	O	0.228687	0.576643	0.464956
	C1338	C	0.309570	0.494439	0.444140
	C1339	C	0.288198	0.538586	0.441662
	N1340	N	0.312339	0.522395	0.434241
	O1341	O	0.284713	0.562395	0.435382
	O1342	O	0.326960	0.476748	0.441444
	C1343	C	0.229574	0.456140	0.506220
	C1344	C	0.274625	0.443131	0.480476
	N1345	N	0.251439	0.433416	0.498479
	O1346	O	0.295777	0.428505	0.471527
	O1347	O	0.207591	0.453885	0.521562
	F1348	F	0.010774	0.795113	0.602628
	C1349	C	0.012686	0.791910	0.566463
	C1350	C	-0.001618	0.823141	0.573530
	F1351	F	-0.016124	0.856324	0.615860
	C1352	C	-0.001189	0.820223	0.536930
	C1353	C	0.016848	0.787441	0.492399
	F1354	F	0.019661	0.785783	0.456610
	C1355	C	0.031694	0.756547	0.485188
	F1356	F	0.048925	0.725439	0.442616
	C1357	C	0.028527	0.757262	0.522118
	F1358	F	-0.026286	0.585070	0.554959
	C1359	C	-0.012467	0.548598	0.516254
	C1360	C	-0.022399	0.516927	0.509825
	F1361	F	-0.045711	0.523022	0.542629
	C1362	C	-0.008197	0.478595	0.469385
	C1363	C	0.015738	0.472906	0.434890
	F1364	F	0.028851	0.437004	0.394906
	C1365	C	0.026079	0.504340	0.441970
	F1366	F	0.049610	0.497777	0.409345
	C1367	C	0.012240	0.542499	0.482928
	F1368	F	0.362555	0.484952	0.354730
	C1369	C	0.358459	0.519454	0.392959
	C1370	C	0.379508	0.534326	0.395310
	F1371	F	0.403867	0.513713	0.359522
	C1372	C	0.375385	0.570142	0.435616
	C1373	C	0.349597	0.593510	0.470338
	F1374	F	0.345104	0.629958	0.506518
	C1375	C	0.328707	0.578214	0.468511
	F1376	F	0.304229	0.599945	0.503556
	C1377	C	0.333130	0.539915	0.431099
	F1378	F	0.249831	0.299883	0.439950
	C1379	C	0.249958	0.334712	0.472862
	C1380	C	0.250301	0.365804	0.469476
	F1381	F	0.249887	0.361065	0.433975
	C1382	C	0.250732	0.402431	0.503050
	C1383	C	0.250412	0.407310	0.540637
	F1384	F	0.250638	0.442122	0.573407
	C1385	C	0.249700	0.376378	0.544361
	F1386	F	0.249002	0.381864	0.580933
	C1387	C	0.249594	0.339573	0.510494
	C1388	C	0.945174	0.925978	0.517519
	C1389	C	0.965629	0.919462	0.524151
	C1390	C	0.966915	0.894060	0.535689
	C1391	C	0.947144	0.876219	0.542386
	C1392	C	0.925300	0.885047	0.539280
	C1393	C	0.924590	0.908991	0.525798
	C1394	C	0.984607	0.941160	0.514198
	C1395	C	0.950975	0.951908	0.501693
	N1396	N	0.975028	0.959927	0.500530
	O1397	O	0.938636	0.963887	0.491316
	O1398	O	1.004182	0.943741	0.517432
	C1399	C	0.955373	0.848279	0.550298
	C1400	C	0.988380	0.878389	0.538767
	N1401	N	0.981081	0.849150	0.544684
	O1402	O	1.008282	0.887124	0.536595
	O1403	O	0.943991	0.827908	0.559143
	C1404	C	0.900778	0.908517	0.519561
	C1405	C	0.901415	0.870180	0.544286
	N1406	N	0.887407	0.885158	0.531889
	O1407	O	0.894344	0.849614	0.556222
	O1408	O	0.893895	0.923187	0.505539
	C1409	C	0.932562	0.391208	0.464450
	C1410	C	0.930625	0.361470	0.469999
	C1411	C	0.950612	0.346812	0.473056
	C1412	C	0.971512	0.363071	0.472052
	C1413	C	0.972894	0.393777	0.467694
	C1414	C	0.953441	0.407594	0.463803
	C1415	C	0.905057	0.352535	0.472369
	C1416	C	0.909993	0.400168	0.459458
	N1417	N	0.893573	0.377279	0.466166
	O1418	O	0.905956	0.421200	0.449936
	O1419	O	0.895161	0.329882	0.478281
	C1420	C	0.990362	0.340991	0.473934
	C1421	C	0.955160	0.314283	0.477113
	N1422	N	0.980056	0.310933	0.474939
	O1423	O	0.941496	0.294013	0.481410
	O1424	O	1.010509	0.345913	0.474402
	C1425	C	0.959534	0.440161	0.459677
	C1426	C	0.991588	0.418635	0.468557
	N1427	N	0.982165	0.446389	0.464198
	O1428	O	1.010512	0.417543	0.473103
	O1429	O	0.948088	0.458270	0.453639
	C1430	C	0.450452	0.625562	0.511678
	C1431	C	0.437560	0.633945	0.493831
	C1432	C	0.422579	0.609961	0.477295
	C1433	C	0.420958	0.577994	0.478893
	C1434	C	0.434687	0.568774	0.495231
	C1435	C	0.449427	0.592485	0.511706
	C1436	C	0.444578	0.668573	0.494435
	C1437	C	0.465949	0.654340	0.524337
	N1438	N	0.461829	0.679306	0.513000
	O1439	O	0.479780	0.656709	0.540371
	O1440	O	0.438265	0.684409	0.481021
	C1441	C	0.404065	0.557324	0.459443
	C1442	C	0.406322	0.610830	0.456552
	N1443	N	0.395859	0.578050	0.446452
	O1444	O	0.402425	0.633648	0.449249
	O1445	O	0.397555	0.529030	0.455730
	C1446	C	0.462294	0.574782	0.525735
	C1447	C	0.437728	0.534836	0.497392
	N1448	N	0.455411	0.539199	0.514275
	O1449	O	0.428189	0.507987	0.486806
	O1450	O	0.475676	0.586703	0.543513
	C1451	C	0.270446	0.228524	0.519001
	C1452	C	0.256162	0.204983	0.527724
	C1453	C	0.230366	0.209261	0.535049
	C1454	C	0.219216	0.237139	0.533713
	C1455	C	0.233169	0.262145	0.527053
	C1456	C	0.258832	0.257542	0.519124
	C1457	C	0.273561	0.177120	0.525664
	C1458	C	0.297596	0.216065	0.510309
	N1459	N	0.298627	0.183870	0.512700
	O1460	O	0.315684	0.229436	0.502845
	O1461	O	0.268317	0.154139	0.534399
	C1462	C	0.192423	0.233426	0.539611
	C1463	C	0.210983	0.186684	0.541878
	N1464	N	0.188682	0.202294	0.543729
	O1465	O	0.213100	0.160203	0.544764
	O1466	O	0.176744	0.251491	0.539531
	C1467	C	0.269085	0.287050	0.511261
	C1468	C	0.226160	0.294311	0.523971
	N1469	N	0.248458	0.308426	0.514845
	O1470	O	0.206191	0.306852	0.527788
	O1471	O	0.290217	0.292827	0.503319
	F1472	F	0.836401	0.923580	0.607623
	C1473	C	0.839733	0.893066	0.567037
	C1474	C	0.818216	0.879849	0.563918
	F1475	F	0.794383	0.898520	0.601375
	C1476	C	0.821202	0.847413	0.522154
	C1477	C	0.846073	0.830372	0.483139
	F1478	F	0.849273	0.800710	0.442262
	C1479	C	0.867530	0.843729	0.486239
	F1480	F	0.891122	0.826795	0.448440
	C1481	C	0.864896	0.874611	0.528422
	F1482	F	0.023326	-0.074235	0.420100
	C1483	C	0.013595	-0.034847	0.448946
	C1484	C	0.028696	-0.012049	0.439926
	F1485	F	0.052161	-0.029618	0.401792
	C1486	C	0.019648	0.029162	0.470509
	C1487	C	-0.005580	0.046874	0.508933
	F1488	F	-0.015005	0.086306	0.537894
	C1489	C	-0.020927	0.024091	0.517456
	F1490	F	-0.044983	0.041800	0.554335
	C1491	C	-0.011339	-0.017111	0.488138
	F1492	F	0.968965	0.312702	0.550216
	C1493	C	0.988234	0.282321	0.509143
	C1494	C	1.002435	0.253181	0.505344
	F1495	F	0.996559	0.256155	0.543129
	C1496	C	1.022750	0.221110	0.462670
	C1497	C	1.028923	0.219802	0.424244
	F1498	F	1.048750	0.190093	0.383407
	C1499	C	1.014708	0.248969	0.428049
	F1500	F	1.020882	0.246762	0.390611
	C1501	C	0.994019	0.280554	0.470602
	F1502	F	0.883964	0.342026	0.392565
	C1503	C	0.864406	0.370327	0.434721
	C1504	C	0.841060	0.386465	0.440880
	F1505	F	0.838069	0.373215	0.404524
	C1506	C	0.820735	0.416902	0.484804
	C1507	C	0.823095	0.427404	0.522622
	F1508	F	0.802717	0.453181	0.564924
	C1509	C	0.846539	0.411453	0.516388
	F1510	F	0.849000	0.422350	0.552590
	C1511	C	0.867983	0.384468	0.472334
	F1512	F	0.508475	0.660299	0.437663
	C1513	C	0.499147	0.697042	0.476530
	C1514	C	0.512880	0.724498	0.478428
	F1515	F	0.535304	0.714072	0.441266
	C1516	C	0.503344	0.763135	0.518680
	C1517	C	0.480081	0.773158	0.557369
	F1518	F	0.470547	0.809621	0.596582
	C1519	C	0.466495	0.745587	0.555605
	F1520	F	0.444464	0.755742	0.593145
	C1521	C	0.475609	0.707372	0.514976
	F1522	F	0.490209	0.471282	0.428031
	C1523	C	0.486217	0.473781	0.464872
	C1524	C	0.499506	0.442472	0.458866
	F1525	F	0.515057	0.409541	0.416644
	C1526	C	0.497289	0.445468	0.496565
	C1527	C	0.479632	0.479164	0.540700
	F1528	F	0.476946	0.482272	0.577236
	C1529	C	0.465223	0.509660	0.546770
	F1530	F	0.448119	0.541391	0.588993
	C1531	C	0.468871	0.507814	0.508971
	F1532	F	0.198422	0.128548	0.465359
	C1533	C	0.173454	0.149632	0.498429
	C1534	C	0.153029	0.136873	0.490538
	F1535	F	0.158501	0.103360	0.450200
	C1536	C	0.126826	0.159322	0.523851
	C1537	C	0.121514	0.192685	0.566971
	F1538	F	0.096577	0.213558	0.600242
	C1539	C	0.141985	0.204822	0.575264
	F1540	F	0.136633	0.236226	0.616869
	C1541	C	0.168183	0.184960	0.540037
	F1542	F	0.306502	0.209791	0.585387
	C1543	C	0.324967	0.178773	0.543856
	C1544	C	0.347911	0.162133	0.538183
	F1545	F	0.351154	0.177073	0.574627
	C1546	C	0.367817	0.130349	0.494769
	C1547	C	0.363279	0.113819	0.457723
	F1548	F	0.381318	0.081909	0.416548
	C1549	C	0.340192	0.130535	0.463506
	F1550	F	0.336171	0.114880	0.427780
	C1551	C	0.321057	0.163945	0.506492
	C1552	C	0.763423	0.755875	0.506138
	C1553	C	0.741913	0.753098	0.499265
	C1554	C	0.730853	0.781503	0.498002
	C1555	C	0.741523	0.812278	0.502912
	C1556	C	0.763540	0.814960	0.509505
	C1557	C	0.774395	0.786812	0.510879
	C1558	C	0.734590	0.717159	0.494592
	C1559	C	0.769788	0.722829	0.508500
	N1560	N	0.752428	0.699643	0.499456
	O1561	O	0.785332	0.716590	0.517934
	O1562	O	0.717226	0.704406	0.488345
	C1563	C	0.724575	0.838263	0.501785
	C1564	C	0.707482	0.785893	0.492321
	N1565	N	0.704020	0.821184	0.496449
	O1566	O	0.693598	0.764711	0.485473
	O1567	O	0.726827	0.867624	0.504426
	C1568	C	0.797523	0.796798	0.518040
	C1569	C	0.780101	0.843288	0.514357
	N1570	N	0.800257	0.830727	0.519323
	O1571	O	0.777980	0.871030	0.513596
	O1572	O	0.811747	0.779935	0.521618
	C1573	C	0.046784	0.104201	0.458771
	C1574	C	0.062158	0.095601	0.473100
	C1575	C	0.078277	0.119208	0.485805
	C1576	C	0.078229	0.151623	0.484993
	C1577	C	0.062461	0.160595	0.471184
	C1578	C	0.047053	0.136675	0.457452
	C1579	C	0.054832	0.063120	0.477203
	C1580	C	0.030296	0.076130	0.450783
	N1581	N	0.035475	0.052795	0.463457
	O1582	O	0.014873	0.073188	0.437488
	O1583	O	0.062238	0.048875	0.491152
	C1584	C	0.096908	0.171547	0.500258
	C1585	C	0.095973	0.118727	0.504383
	N1586	N	0.106818	0.150763	0.511809
	O1587	O	0.100559	0.096649	0.512229
	O1588	O	0.103378	0.199230	0.502079
	C1589	C	0.031394	0.154743	0.447095
	C1590	C	0.056118	0.195966	0.472735
	N1591	N	0.036879	0.191185	0.458835
	O1592	O	0.064252	0.224250	0.484337
	O1593	O	0.017217	0.142243	0.431148
	C1594	C	0.771922	0.479412	0.491570
	C1595	C	0.759356	0.451706	0.492599
	C1596	C	0.735347	0.452232	0.492891
	C1597	C	0.724156	0.480013	0.491445
	C1598	C	0.736726	0.508276	0.490738
	C1599	C	0.760316	0.508257	0.491405
	C1600	C	0.776055	0.424452	0.492191
	C1601	C	0.797120	0.471138	0.491159
	N1602	N	0.798732	0.437165	0.490438
	O1603	O	0.813472	0.488438	0.491342
	O1604	O	0.772118	0.397154	0.493483
	C1605	C	0.698487	0.473192	0.492786
	C1606	C	0.718106	0.425674	0.492982
	N1607	N	0.696313	0.439614	0.492763
	O1608	O	0.720971	0.397967	0.493622
	O1609	O	0.682091	0.491751	0.494459
	C1610	C	0.768904	0.541828	0.491092
	C1611	C	0.730326	0.540299	0.486983
	N1612	N	0.749941	0.560299	0.488857
	O1613	O	0.713137	0.547816	0.481280
	O1614	O	0.787711	0.552637	0.492654
	C1615	C	0.550272	0.885426	0.499240
	C1616	C	0.529090	0.869791	0.502303
	C1617	C	0.527624	0.840351	0.508685
	C1618	C	0.546959	0.827356	0.513438
	C1619	C	0.568641	0.842562	0.509695
	C1620	C	0.570648	0.870899	0.501769
	C1621	C	0.509998	0.890548	0.499539
	C1622	C	0.545486	0.916681	0.493291
	N1623	N	0.520299	0.919578	0.496121
	O1624	O	0.559129	0.936374	0.487275
	O1625	O	0.489667	0.885313	0.500052
	C1626	C	0.539721	0.796296	0.520387
	C1627	C	0.507443	0.818395	0.512369
	N1628	N	0.515958	0.791865	0.518727
	O1629	O	0.487893	0.820813	0.509751
	O1630	O	0.550951	0.778283	0.526745
	C1631	C	0.596148	0.880553	0.498704
	C1632	C	0.591777	0.834794	0.514449
	N1633	N	0.608054	0.857570	0.506316
	O1634	O	0.596212	0.814776	0.524875
	O1635	O	0.605715	0.902667	0.491229
	C1636	C	0.555095	0.333819	0.505691
	C1637	C	0.532722	0.342760	0.504501
	C1638	C	0.529472	0.370327	0.496574
	C1639	C	0.549212	0.387762	0.488052
	C1640	C	0.571842	0.378653	0.488829
	C1641	C	0.574652	0.352521	0.498605
	C1642	C	0.515464	0.318398	0.512200
	C1643	C	0.551993	0.304887	0.517129
	N1644	N	0.527969	0.296206	0.519580
	O1645	O	0.566232	0.291015	0.523323
	O1646	O	0.495166	0.316069	0.511453
	C1647	C	0.540079	0.417123	0.482899
	C1648	C	0.507046	0.387386	0.496369
	N1649	N	0.514250	0.416617	0.489997
	O1650	O	0.486624	0.379781	0.500877
	O1651	O	0.551047	0.438169	0.474774
	C1652	C	0.600116	0.351052	0.499714
	C1653	C	0.595500	0.393610	0.481735
	N1654	N	0.611717	0.376304	0.488985
	O1655	O	0.600861	0.416262	0.472444
	O1656	O	0.609438	0.333876	0.509018
	C1657	C	0.447222	0.148867	0.512984
	C1658	C	0.462471	0.131977	0.521078
	C1659	C	0.459494	0.097436	0.517225
	C1660	C	0.441153	0.080016	0.505681
	C1661	C	0.424432	0.098662	0.500529
	C1662	C	0.427964	0.132419	0.503273
	C1663	C	0.481221	0.155604	0.530618
	C1664	C	0.455952	0.183561	0.516233
	N1665	N	0.476621	0.185925	0.526631
	O1666	O	0.448384	0.205235	0.510132
	O1667	O	0.497183	0.150882	0.540105
	C1668	C	0.444155	0.042179	0.501250
	C1669	C	0.474097	0.072586	0.522065
	N1670	N	0.464841	0.039062	0.510405
	O1671	O	0.490184	0.078705	0.534440
	O1672	O	0.432579	0.017913	0.491394
	C1673	C	0.408734	0.145077	0.494214
	C1674	C	0.401705	0.089629	0.491392
	N1675	N	0.392658	0.119499	0.489447
	O1676	O	0.391954	0.063550	0.487196
	O1677	O	0.406481	0.171232	0.490806
	F1678	F	0.655429	0.817865	0.423486
	C1679	C	0.656352	0.832068	0.461790
	C1680	C	0.680283	0.823267	0.459244
	F1681	F	0.702283	0.800874	0.418443
	C1682	C	0.681603	0.837319	0.498890
	C1683	C	0.658931	0.864350	0.541180
	F1684	F	0.660197	0.881546	0.579730
	C1685	C	0.635024	0.873073	0.543639
	F1686	F	0.613501	0.898445	0.584406
	C1687	C	0.633028	0.855177	0.503962
	F1688	F	0.716112	0.700505	0.571778
	C1689	C	0.733207	0.665782	0.533308
	C1690	C	0.732038	0.631450	0.530378
	F1691	F	0.713382	0.633436	0.565772
	C1692	C	0.750076	0.594872	0.490838
	C1693	C	0.768869	0.593710	0.453993
	F1694	F	0.785769	0.558929	0.415242
	C1695	C	0.770077	0.628091	0.456992
	F1696	F	0.788485	0.626069	0.421379
	C1697	C	0.752169	0.664709	0.496686
	F1698	F	0.611255	0.429545	0.570992
	C1699	C	0.632837	0.417194	0.531770
	C1700	C	0.653253	0.434198	0.532695
	F1701	F	0.651296	0.462828	0.572898
	C1702	C	0.675848	0.421687	0.491881
	C1703	C	0.678072	0.390351	0.450229
	F1704	F	0.700043	0.376504	0.410873
	C1705	C	0.657585	0.373539	0.449312
	F1706	F	0.659890	0.343997	0.409170
	C1707	C	0.634375	0.387641	0.490036
	F1708	F	0.450379	0.038479	0.585213
	C1709	C	0.470332	0.008619	0.544671
	C1710	C	0.484898	-0.019699	0.541592
	F1711	F	0.478928	-0.016750	0.579397
	C1712	C	0.505801	-0.051246	0.499355
	C1713	C	0.510983	-0.054313	0.460257
	F1714	F	0.529975	-0.085240	0.419347
	C1715	C	0.496682	-0.025695	0.463392
	F1716	F	0.502329	-0.029283	0.425333
	C1717	C	0.476579	0.006781	0.505889
	F1718	F	0.552701	0.215221	0.452764
	C1719	C	0.529307	0.227586	0.489341
	C1720	C	0.516297	0.200297	0.490817
	F1721	F	0.527255	0.161849	0.455739
	C1722	C	0.491584	0.212693	0.528376
	C1723	C	0.481200	0.252649	0.565934
	F1724	F	0.458537	0.264893	0.603608
	C1725	C	0.494045	0.279980	0.564271
	F1726	F	0.483206	0.318146	0.600189
	C1727	C	0.517776	0.267984	0.525188
	F1728	F	0.161946	0.627308	0.762828
	C1729	C	0.158898	0.614155	0.726546
	C1730	C	0.135492	0.630279	0.732847
	F1731	F	0.116031	0.658732	0.775036
	C1732	C	0.131842	0.616235	0.695321
	C1733	C	0.153227	0.589183	0.651217
	F1734	F	0.150693	0.578343	0.615094
	C1735	C	0.176684	0.573114	0.644856
	F1736	F	0.196998	0.547256	0.602505
	C1737	C	0.179127	0.583584	0.682594
	C1738	C	0.028126	0.637957	0.696237
	C1739	C	0.049064	0.654146	0.695061
	C1740	C	0.069079	0.639479	0.698067
	C1741	C	0.067096	0.609876	0.703839
	C1742	C	0.045977	0.593952	0.705322
	C1743	C	0.026695	0.607390	0.700835
	C1744	C	0.044556	0.686526	0.690756
	C1745	C	0.009324	0.659872	0.694117
	N1746	N	0.019659	0.689838	0.692913
	O1747	O	-0.010811	0.654898	0.693623
	O1748	O	0.058243	0.706724	0.686309
	C1749	C	0.089703	0.600888	0.708737
	C1750	C	0.094752	0.648198	0.695316
	N1751	N	0.106219	0.623539	0.701640
	O1752	O	0.104729	0.670645	0.689065
	O1753	O	0.093694	0.580008	0.718468
	C1754	C	0.008024	0.582498	0.699976
	C1755	C	0.040121	0.561006	0.708805
	N1756	N	0.017511	0.554705	0.704230
	O1757	O	0.051710	0.542705	0.714476
	O1758	O	-0.010929	0.583594	0.695504
	C1759	C	0.228032	0.520627	0.675210
	C1760	C	0.240448	0.548654	0.674847
	C1761	C	0.264630	0.547746	0.673932
	C1762	C	0.276107	0.519330	0.674240
	C1763	C	0.262981	0.492102	0.676807
	C1764	C	0.239411	0.492123	0.676074
	C1765	C	0.223910	0.575694	0.674778
	C1766	C	0.202640	0.529340	0.676355
	N1767	N	0.201128	0.563206	0.676854
	O1768	O	0.186106	0.512373	0.676749
	O1769	O	0.228013	0.602716	0.672990
	C1770	C	0.301861	0.525929	0.672618
	C1771	C	0.282305	0.573517	0.672443
	N1772	N	0.304241	0.559210	0.672087
	O1773	O	0.279627	0.600955	0.671283
	O1774	O	0.318202	0.507374	0.671046
	C1775	C	0.230737	0.458673	0.676603
	C1776	C	0.269543	0.459755	0.679977
	N1777	N	0.249781	0.440013	0.678534
	O1778	O	0.286930	0.451884	0.685084
	O1779	O	0.211817	0.448071	0.675394
	F1780	F	-0.020997	0.754245	0.777237
	C1781	C	-0.014869	0.751920	0.739742
	C1782	C	-0.029138	0.780988	0.743478
	F1783	F	-0.048875	0.810836	0.784343
	C1784	C	-0.023084	0.779468	0.704960
	C1785	C	-0.002860	0.747265	0.662273
	F1786	F	0.002934	0.744144	0.624430
	C1787	C	0.011318	0.718132	0.658515
	F1788	F	0.030547	0.687685	0.617440
	C1789	C	0.005691	0.720149	0.697153
	F1790	F	-0.029223	0.563938	0.773300
	C1791	C	-0.016023	0.528041	0.733337
	C1792	C	-0.026290	0.496532	0.726187
	F1793	F	-0.049897	0.503050	0.758619
	C1794	C	-0.012398	0.458406	0.685199
	C1795	C	0.012332	0.452390	0.651989
	F1796	F	0.026207	0.415944	0.613269
	C1797	C	0.022238	0.484107	0.658557
	F1798	F	0.045525	0.478109	0.625781
	C1799	C	0.007935	0.522432	0.698947
	F1800	F	0.349074	0.535569	0.591443
	C1801	C	0.347347	0.564166	0.631451
	C1802	C	0.367971	0.580756	0.631963
	F1803	F	0.389421	0.568294	0.592538
	C1804	C	0.366663	0.610279	0.673496
	C1805	C	0.343572	0.624537	0.714441
	F1806	F	0.341513	0.653982	0.754407
	C1807	C	0.322946	0.607986	0.713941
	F1808	F	0.301118	0.621931	0.753514
	C1809	C	0.324885	0.576804	0.672483
	F1810	F	0.283409	0.299755	0.595632
	C1811	C	0.266353	0.334510	0.634097
	C1812	C	0.267608	0.368835	0.637031
	F1813	F	0.286153	0.366751	0.601474
	C1814	C	0.249617	0.405452	0.676578
	C1815	C	0.230914	0.406702	0.713555
	F1816	F	0.214005	0.441499	0.752263
	C1817	C	0.229690	0.372355	0.710627
	F1818	F	0.211263	0.374431	0.746268
	C1819	C	0.247490	0.335679	0.670868
	C1820	C	0.937650	0.904645	0.694029
	C1821	C	0.952574	0.896631	0.709367
	C1822	C	0.952648	0.863756	0.709928
	C1823	C	0.937474	0.839576	0.695695
	C1824	C	0.921071	0.849218	0.683263
	C1825	C	0.921499	0.881078	0.681409
	C1826	C	0.969198	0.924526	0.717066
	C1827	C	0.944748	0.937446	0.690464
	N1828	N	0.964036	0.947851	0.704370
	O1829	O	0.937270	0.951824	0.676699
	O1830	O	0.984678	0.927384	0.730232
	C1831	C	0.943528	0.804538	0.694854
	C1832	C	0.968293	0.845750	0.720356
	N1833	N	0.962789	0.809338	0.708714
	O1834	O	0.982489	0.858260	0.736256
	O1835	O	0.935213	0.776431	0.683704
	C1836	C	0.903473	0.881941	0.663536
	C1837	C	0.902555	0.829104	0.667639
	N1838	N	0.892561	0.849992	0.656269
	O1839	O	0.896225	0.801247	0.665509
	O1840	O	0.898730	0.904194	0.656008
	C1841	C	0.929940	0.372984	0.642707
	C1842	C	0.925156	0.339500	0.639582
	C1843	C	0.940129	0.320529	0.646744
	C1844	C	0.958484	0.336648	0.659455
	C1845	C	0.962754	0.371037	0.663626
	C1846	C	0.948842	0.388497	0.654223
	C1847	C	0.902193	0.332771	0.630836
	C1848	C	0.912696	0.385978	0.630908
	N1849	N	0.895215	0.362645	0.627322
	O1850	O	0.912771	0.410727	0.624674
	O1851	O	0.890782	0.308536	0.628208
	C1852	C	0.971304	0.310429	0.664875
	C1853	C	0.940958	0.282972	0.642841
	N1854	N	0.960720	0.277944	0.652809
	O1855	O	0.928421	0.260191	0.632825
	O1856	O	0.987148	0.314694	0.677585
	C1857	C	0.957060	0.424268	0.660777
	C1858	C	0.980127	0.395991	0.677873
	N1859	N	0.975724	0.427517	0.675361
	O1860	O	0.994837	0.391716	0.689745
	O1861	O	0.950227	0.446487	0.654685
	C1862	C	0.468028	0.656048	0.659695
	C1863	C	0.445981	0.664028	0.657217
	C1864	C	0.426302	0.645669	0.664948
	C1865	C	0.429013	0.619993	0.675363
	C1866	C	0.451966	0.610251	0.674982
	C1867	C	0.471354	0.628528	0.667655
	C1868	C	0.448922	0.693117	0.646019
	C1869	C	0.485339	0.680178	0.651508
	N1870	N	0.472855	0.702068	0.643786
	O1871	O	0.505638	0.682610	0.652229
	O1872	O	0.434654	0.706862	0.639761
	C1873	C	0.405626	0.604387	0.681641
	C1874	C	0.400902	0.646853	0.663595
	N1875	N	0.389404	0.621495	0.674225
	O1876	O	0.391545	0.663934	0.654234
	O1877	O	0.400443	0.581480	0.690574
	C1878	C	0.493971	0.611228	0.667286
	C1879	C	0.461049	0.581313	0.680708
	N1880	N	0.486871	0.581925	0.673586
	O1881	O	0.450063	0.560456	0.689198
	O1882	O	0.514439	0.618753	0.662478
	C1883	C	0.268791	0.219068	0.669841
	C1884	C	0.258127	0.188300	0.664987
	C1885	C	0.235901	0.185872	0.658994
	C1886	C	0.225409	0.213462	0.656530
	C1887	C	0.236145	0.244711	0.661861
	C1888	C	0.257471	0.247780	0.669250
	C1889	C	0.275100	0.162325	0.666085
	C1890	C	0.292240	0.214610	0.675313
	N1891	N	0.295719	0.179321	0.671189
	O1892	O	0.306162	0.235747	0.682013
	O1893	O	0.272815	0.133034	0.663596
	C1894	C	0.202126	0.203665	0.649821
	C1895	C	0.219604	0.157171	0.653449
	N1896	N	0.199447	0.169689	0.648459
	O1897	O	0.221886	0.129220	0.653799
	O1898	O	0.187773	0.220665	0.646567
	C1899	C	0.265033	0.283364	0.673178
	C1900	C	0.229835	0.277626	0.659268
	N1901	N	0.247219	0.300795	0.668204
	O1902	O	0.214303	0.283798	0.649776
	O1903	O	0.282525	0.295961	0.679046
	F1904	F	0.840898	0.897459	0.718032
	C1905	C	0.846330	0.864037	0.677649
	C1906	C	0.825874	0.851275	0.669878
	F1907	F	0.800920	0.872460	0.702940
	C1908	C	0.831102	0.816025	0.628237
	C1909	C	0.857287	0.796124	0.592960
	F1910	F	0.862599	0.764776	0.551353
	C1911	C	0.877786	0.808169	0.601209
	F1912	F	0.902712	0.787245	0.567906
	C1913	C	0.872516	0.841496	0.644319
	F1914	F	0.014528	-0.085690	0.629959
	C1915	C	0.005127	-0.046257	0.658952
	C1916	C	0.020528	-0.023489	0.650516
	F1917	F	0.044570	-0.041214	0.613604
	C1918	C	0.010922	0.017708	0.679758
	C1919	C	-0.014038	0.035463	0.718904
	F1920	F	-0.023782	0.074849	0.747695
	C1921	C	-0.029140	0.012682	0.727955
	F1922	F	-0.052671	0.030266	0.765962
	C1923	C	-0.020119	-0.028527	0.697340
	F1924	F	0.951045	0.275455	0.725161
	C1925	C	0.968157	0.244208	0.682600
	C1926	C	0.982993	0.213343	0.675448
	F1927	F	0.980196	0.215076	0.711272
	C1928	C	1.000987	0.180490	0.630935
	C1929	C	1.001442	0.177531	0.594300
	F1930	F	1.015924	0.144297	0.552004
	C1931	C	0.987222	0.208792	0.601303
	F1932	F	0.989072	0.205476	0.565115
	C1933	C	0.971371	0.243460	0.645629
	F1934	F	0.878417	0.331048	0.561508
	C1935	C	0.863120	0.364668	0.603222
	C1936	C	0.840490	0.386232	0.612812
	F1937	F	0.833710	0.372982	0.580453
	C1938	C	0.824617	0.421896	0.656294
	C1939	C	0.830715	0.434016	0.690884
	F1940	F	0.814823	0.466770	0.733191
	C1941	C	0.853023	0.412257	0.681549
	F1942	F	0.858535	0.424135	0.715125
	C1943	C	0.870099	0.378350	0.637131
	F1944	F	0.517716	0.680604	0.563543
	C1945	C	0.506675	0.718735	0.599520
	C1946	C	0.519458	0.746252	0.598286
	F1947	F	0.542260	0.734214	0.560925
	C1948	C	0.508854	0.786183	0.635931
	C1949	C	0.484039	0.798326	0.673159
	F1950	F	0.472849	0.836742	0.708258
	C1951	C	0.471179	0.770819	0.674335
	F1952	F	0.447658	0.782961	0.710570
	C1953	C	0.482897	0.730468	0.638392
	F1954	F	0.524259	0.516510	0.586248
	C1955	C	0.521573	0.519450	0.622694
	C1956	C	0.535970	0.488839	0.616467
	F1957	F	0.553161	0.457261	0.574191
	C1958	C	0.532382	0.490554	0.654164
	C1959	C	0.515062	0.524540	0.698326
	F1960	F	0.511126	0.526925	0.735079
	C1961	C	0.501720	0.555911	0.704491
	F1962	F	0.486305	0.588874	0.746762
	C1963	C	0.503913	0.553070	0.666888
	F1964	F	0.205316	0.102024	0.566307
	C1965	C	0.181514	0.120535	0.603824
	C1966	C	0.159978	0.107408	0.600678
	F1967	F	0.163308	0.076893	0.560095
	C1968	C	0.134844	0.125726	0.639347
	C1969	C	0.132233	0.156505	0.681556
	F1970	F	0.108671	0.173321	0.719391
	C1971	C	0.153684	0.169882	0.684647
	F1972	F	0.150505	0.199464	0.725541
	C1973	C	0.178528	0.152950	0.645600
	F1974	F	0.297824	0.200245	0.749105
	C1975	C	0.319689	0.177420	0.708151
	C1976	C	0.343721	0.168697	0.705350
	F1977	F	0.344851	0.183164	0.743537
	C1978	C	0.366898	0.145089	0.662997
	C1979	C	0.364676	0.126921	0.623505
	F1980	F	0.386055	0.101183	0.582647
	C1981	C	0.340697	0.135754	0.626231
	F1982	F	0.339221	0.118322	0.587845
	C1983	C	0.318175	0.163139	0.668616
	C1984	C	0.766208	0.738673	0.641010
	C1985	C	0.740583	0.743109	0.648741
	C1986	C	0.728955	0.772053	0.648779
	C1987	C	0.743168	0.795748	0.640276
	C1988	C	0.768782	0.792018	0.633813
	C1989	C	0.780079	0.763841	0.634601
	C1990	C	0.730409	0.713476	0.656426
	C1991	C	0.773305	0.706395	0.643865
	N1992	N	0.751067	0.692137	0.652824
	O1993	O	0.793300	0.693866	0.639992
	O1994	O	0.709303	0.707614	0.664293
	C1995	C	0.725763	0.823504	0.642212
	C1996	C	0.701870	0.784227	0.657077
	N1997	N	0.700776	0.816477	0.654791
	O1998	O	0.683869	0.770624	0.664198
	O1999	O	0.730957	0.846600	0.633649
	C2000	C	0.806847	0.767626	0.628784
	C2001	C	0.788267	0.814320	0.626474
	N2002	N	0.810582	0.798724	0.624609
	O2003	O	0.786204	0.840625	0.623292
	O2004	O	0.822510	0.749637	0.628967
	C2005	C	0.033787	0.081707	0.644585
	C2006	C	0.054598	0.074274	0.650001
	C2007	C	0.075010	0.091683	0.642335
	C2008	C	0.074159	0.116022	0.629401
	C2009	C	0.052663	0.124099	0.625121
	C2010	C	0.032539	0.107096	0.633024
	C2011	C	0.048679	0.048552	0.666107
	C2012	C	0.014944	0.059659	0.653995
	N2013	N	0.024585	0.040651	0.667372
	O2014	O	-0.004588	0.057037	0.650628
	O2015	O	0.060983	0.036591	0.676543
	C2016	C	0.098283	0.130323	0.623643
	C2017	C	0.098892	0.091961	0.648352
	N2018	N	0.112311	0.115244	0.635935
	O2019	O	0.105782	0.077233	0.662315
	O2020	O	0.105480	0.150624	0.611354
	C2021	C	0.011272	0.122415	0.629314
	C2022	C	0.044365	0.152362	0.617656
	N2023	N	0.018664	0.151532	0.623222
	O2024	O	0.055713	0.172895	0.609095
	O2025	O	-0.008569	0.113569	0.631229
	C2026	C	0.772812	0.490730	0.675868
	C2027	C	0.758263	0.471659	0.692562
	C2028	C	0.731285	0.479341	0.707967
	C2029	C	0.718775	0.505904	0.706486
	C2030	C	0.733132	0.526728	0.691707
	C2031	C	0.760020	0.519214	0.676598
	C2032	C	0.776376	0.443275	0.688460
	C2033	C	0.801174	0.474898	0.660223
	N2034	N	0.802031	0.444994	0.666607
	O2035	O	0.820100	0.484220	0.645258
	O2036	O	0.771317	0.423222	0.701646
	C2037	C	0.690566	0.504945	0.721689
	C2038	C	0.711919	0.460848	0.724258
	N2039	N	0.687866	0.476710	0.731159
	O2040	O	0.715461	0.436708	0.730053
	O2041	O	0.673173	0.522665	0.724418
	C2042	C	0.770296	0.544515	0.661500
	C2043	C	0.725316	0.557110	0.686655
	N2044	N	0.748466	0.566993	0.668888
	O2045	O	0.704234	0.571327	0.695013
	O2046	O	0.792279	0.546764	0.646145
	C2047	C	0.558596	0.919866	0.660880
	C2048	C	0.540490	0.902218	0.648721
	C2049	C	0.537582	0.867542	0.644574
	C2050	C	0.552690	0.850726	0.652929
	C2051	C	0.571940	0.867137	0.662709
	C2052	C	0.574977	0.901565	0.666842
	C2053	C	0.526045	0.927005	0.643615
	C2054	C	0.555506	0.957859	0.665663
	N2055	N	0.535086	0.960760	0.655878
	O2056	O	0.566837	0.982379	0.676194
	O2057	O	0.510220	0.920693	0.630653
	C2058	C	0.544173	0.815701	0.648988
	C2059	C	0.519056	0.843651	0.634391
	N2060	N	0.523683	0.813185	0.638155
	O2061	O	0.503241	0.848288	0.624597
	O2062	O	0.551775	0.793884	0.654889
	C2063	C	0.597745	0.910511	0.675875
	C2064	C	0.590740	0.854969	0.672818
	N2065	N	0.606732	0.880675	0.677915
	O2066	O	0.592761	0.829072	0.676708
	O2067	O	0.607552	0.936523	0.679967
	C2068	C	0.563650	0.364051	0.668820
	C2069	C	0.550341	0.373006	0.651877
	C2070	C	0.551830	0.405647	0.651037
	C2071	C	0.566852	0.429017	0.667003
	C2072	C	0.579839	0.420470	0.684737
	C2073	C	0.578628	0.388004	0.685414
	C2074	C	0.534918	0.344159	0.639012
	C2075	C	0.556238	0.329861	0.668930
	N2076	N	0.538910	0.319275	0.650523
	O2077	O	0.562359	0.314210	0.682679
	O2078	O	0.521205	0.341719	0.622759
	C2079	C	0.563540	0.463331	0.665554
	C2080	C	0.538977	0.423463	0.637091
	N2081	N	0.545859	0.459067	0.648687
	O2082	O	0.525617	0.411595	0.619261
	O2083	O	0.572922	0.490337	0.676568
	C2084	C	0.594447	0.387495	0.706964
	C2085	C	0.596908	0.440886	0.703878
	N2086	N	0.604893	0.420298	0.717198
	O2087	O	0.603664	0.468935	0.707216
	O2088	O	0.598078	0.364880	0.714679
	C2089	C	0.453393	0.172010	0.651831
	C2090	C	0.472733	0.159090	0.656632
	C2091	C	0.471202	0.129859	0.663357
	C2092	C	0.449926	0.114421	0.666796
	C2093	C	0.429549	0.128899	0.664238
	C2094	C	0.431790	0.156630	0.655368
	C2095	C	0.492947	0.180963	0.652728
	C2096	C	0.460713	0.202813	0.644446
	N2097	N	0.484480	0.207289	0.646073
	O2098	O	0.449541	0.220600	0.637792
	O2099	O	0.512486	0.178631	0.655401
	C2100	C	0.454595	0.083456	0.673214
	C2101	C	0.490250	0.109223	0.666309
	N2102	N	0.479829	0.080445	0.670189
	O2103	O	0.510632	0.114367	0.665603
	O2104	O	0.440845	0.064022	0.679651
	C2105	C	0.408376	0.164906	0.651501
	C2106	C	0.403921	0.119515	0.667813
	N2107	N	0.391981	0.142471	0.660213
	O2108	O	0.394298	0.097593	0.675610
	O2109	O	0.403831	0.185013	0.641250
	F2110	F	0.648100	0.822719	0.592845
	C2111	C	0.651430	0.837917	0.629242
	C2112	C	0.674319	0.821200	0.623635
	F2113	F	0.692732	0.790057	0.582160
	C2114	C	0.678337	0.836319	0.660937
	C2115	C	0.659279	0.869906	0.703833
	F2116	F	0.663390	0.885793	0.739491
	C2117	C	0.636177	0.886561	0.709600
	F2118	F	0.618202	0.918617	0.750695
	C2119	C	0.631565	0.869820	0.672613
	F2120	F	0.749811	0.700618	0.727610
	C2121	C	0.749673	0.665796	0.694703
	C2122	C	0.749568	0.634598	0.697880
	F2123	F	0.749966	0.639353	0.733401
	C2124	C	0.749130	0.597971	0.664312
	C2125	C	0.749421	0.593100	0.626747
	F2126	F	0.749105	0.558330	0.594054
	C2127	C	0.749996	0.624098	0.623144
	F2128	F	0.750461	0.618730	0.586775
	C2129	C	0.750014	0.660943	0.657090
	F2130	F	0.596402	0.484614	0.804503
	C2131	C	0.620854	0.464118	0.769002
	C2132	C	0.641765	0.479242	0.771728
	F2133	F	0.637486	0.513664	0.810203
	C2134	C	0.667193	0.458949	0.733852
	C2135	C	0.671823	0.420637	0.696251
	F2136	F	0.696381	0.399086	0.661441
	C2137	C	0.651054	0.405146	0.694003
	F2138	F	0.655735	0.368690	0.657658
	C2139	C	0.625195	0.428340	0.728468
	F2140	F	0.469755	0.084850	0.746891
	C2141	C	0.488908	0.054107	0.706034
	C2142	C	0.503186	0.025473	0.702910
	F2143	F	0.497296	0.028799	0.740904
	C2144	C	0.523368	-0.006916	0.660443
	C2145	C	0.529784	-0.008572	0.621720
	F2146	F	0.549804	-0.038360	0.581221
	C2147	C	0.515328	0.019865	0.624817
	F2148	F	0.521396	0.017004	0.587031
	C2149	C	0.494289	0.051252	0.666984
	F2150	F	0.556256	0.242546	0.570851
	C2151	C	0.534184	0.252958	0.608479
	C2152	C	0.520518	0.225527	0.607012
	F2153	F	0.530088	0.188880	0.568066
	C2154	C	0.497160	0.235860	0.645750
	C2155	C	0.487577	0.274688	0.685697
	F2156	F	0.465073	0.285402	0.722901
	C2157	C	0.501331	0.302054	0.687244
	F2158	F	0.491997	0.338950	0.725872
	C2159	C	0.525005	0.291386	0.648806
	F2160	F	0.166467	0.627366	0.920091
	C2161	C	0.159604	0.614284	0.887855
	C2162	C	0.136910	0.635924	0.897692
	F2163	F	0.121775	0.669651	0.939384
	C2164	C	0.129833	0.622401	0.863922
	C2165	C	0.146802	0.588460	0.819460
	F2166	F	0.141188	0.576714	0.786020
	C2167	C	0.169108	0.566534	0.809943
	F2168	F	0.184884	0.533734	0.767610
	C2169	C	0.175325	0.578537	0.844377
	C2170	C	0.041515	0.664042	0.841510
	C2171	C	0.059865	0.680183	0.854219
	C2172	C	0.074834	0.661254	0.861426
	C2173	C	0.070031	0.627808	0.858383
	C2174	C	0.051171	0.612230	0.846776
	C2175	C	0.037502	0.629371	0.836784
	C2176	C	0.058979	0.717779	0.858209
	C2177	C	0.028679	0.690241	0.836086
	N2178	N	0.039217	0.722774	0.848225
	O2179	O	0.012858	0.685931	0.823322
	O2180	O	0.071481	0.740605	0.868287
	C2181	C	0.087169	0.614983	0.870459
	C2182	C	0.097774	0.668023	0.870232
	N2183	N	0.104689	0.638253	0.873936
	O2184	O	0.109221	0.692203	0.872748
	O2185	O	0.086999	0.590384	0.876939
	C2186	C	0.019803	0.604779	0.823310
	C2187	C	0.042907	0.576526	0.840379
	N2188	N	0.024171	0.573326	0.825951
	O2189	O	0.049766	0.554309	0.846451
	O2190	O	0.004906	0.609225	0.811834
	C2191	C	0.227147	0.509401	0.824407
	C2192	C	0.241633	0.528933	0.808408
	C2193	C	0.268656	0.520962	0.792587
	C2194	C	0.281311	0.493672	0.792979
	C2195	C	0.266733	0.473998	0.809467
	C2196	C	0.239802	0.481768	0.824949
	C2197	C	0.223584	0.556905	0.811899
	C2198	C	0.198737	0.525566	0.840543
	N2199	N	0.197915	0.555298	0.833888
	O2200	O	0.179764	0.516536	0.855957
	O2201	O	0.228687	0.576643	0.798289
	C2202	C	0.309570	0.494439	0.777474
	C2203	C	0.288198	0.538586	0.774995
	N2204	N	0.312339	0.522395	0.767575
	O2205	O	0.284713	0.562395	0.768715
	O2206	O	0.326960	0.476748	0.774777
	C2207	C	0.229574	0.456140	0.839553
	C2208	C	0.274625	0.443131	0.813809
	N2209	N	0.251439	0.433416	0.831812
	O2210	O	0.295777	0.428505	0.804860
	O2211	O	0.207591	0.453885	0.854895
	F2212	F	0.010774	0.795113	0.935961
	C2213	C	0.012686	0.791910	0.899796
	C2214	C	-0.001618	0.823141	0.906864
	F2215	F	-0.016124	0.856324	0.949193
	C2216	C	-0.001189	0.820223	0.870264
	C2217	C	0.016848	0.787441	0.825732
	F2218	F	0.019661	0.785783	0.789943
	C2219	C	0.031694	0.756547	0.818521
	F2220	F	0.048925	0.725439	0.775949
	C2221	C	0.028527	0.757262	0.855452
	F2222	F	-0.026286	0.585070	0.888293
	C2223	C	-0.012467	0.548598	0.849588
	C2224	C	-0.022399	0.516927	0.843159
	F2225	F	-0.045711	0.523022	0.875963
	C2226	C	-0.008197	0.478595	0.802718
	C2227	C	0.015738	0.472906	0.768224
	F2228	F	0.028851	0.437004	0.728240
	C2229	C	0.026079	0.504340	0.775304
	F2230	F	0.049610	0.497777	0.742678
	C2231	C	0.012240	0.542499	0.816261
	F2232	F	0.362555	0.484952	0.688063
	C2233	C	0.358459	0.519454	0.726292
	C2234	C	0.379508	0.534326	0.728643
	F2235	F	0.403867	0.513713	0.692856
	C2236	C	0.375385	0.570142	0.768949
	C2237	C	0.349597	0.593510	0.803671
	F2238	F	0.345104	0.629958	0.839851
	C2239	C	0.328707	0.578214	0.801844
	F2240	F	0.304229	0.599945	0.836889
	C2241	C	0.333130	0.539915	0.764432
	F2242	F	0.249831	0.299883	0.773284
	C2243	C	0.249958	0.334712	0.806195
	C2244	C	0.250301	0.365804	0.802810
	F2245	F	0.249887	0.361065	0.767308
	C2246	C	0.250732	0.402431	0.836383
	C2247	C	0.250412	0.407310	0.873970
	F2248	F	0.250638	0.442122	0.906740
	C2249	C	0.249700	0.376378	0.877694
	F2250	F	0.249002	0.381864	0.914266
	C2251	C	0.249594	0.339573	0.843827
	C2252	C	0.945174	0.925978	0.850852
	C2253	C	0.965629	0.919462	0.857484
	C2254	C	0.966915	0.894060	0.869022
	C2255	C	0.947144	0.876219	0.875720
	C2256	C	0.925300	0.885047	0.872614
	C2257	C	0.924590	0.908991	0.859131
	C2258	C	0.984607	0.941160	0.847531
	C2259	C	0.950975	0.951908	0.835026
	N2260	N	0.975028	0.959927	0.833863
	O2261	O	0.938636	0.963887	0.824650
	O2262	O	1.004182	0.943741	0.850765
	C2263	C	0.955373	0.848279	0.883631
	C2264	C	0.988380	0.878389	0.872100
	N2265	N	0.981081	0.849150	0.878017
	O2266	O	1.008282	0.887124	0.869929
	O2267	O	0.943991	0.827908	0.892476
	C2268	C	0.900778	0.908517	0.852895
	C2269	C	0.901415	0.870180	0.877620
	N2270	N	0.887407	0.885158	0.865222
	O2271	O	0.894344	0.849614	0.889556
	O2272	O	0.893895	0.923187	0.838872
	C2273	C	0.932562	0.391208	0.797783
	C2274	C	0.930625	0.361470	0.803332
	C2275	C	0.950612	0.346812	0.806389
	C2276	C	0.971512	0.363071	0.805386
	C2277	C	0.972894	0.393777	0.801027
	C2278	C	0.953441	0.407594	0.797136
	C2279	C	0.905057	0.352535	0.805702
	C2280	C	0.909993	0.400168	0.792791
	N2281	N	0.893573	0.377279	0.799500
	O2282	O	0.905956	0.421200	0.783269
	O2283	O	0.895161	0.329882	0.811614
	C2284	C	0.990362	0.340991	0.807267
	C2285	C	0.955160	0.314283	0.810446
	N2286	N	0.980056	0.310933	0.808273
	O2287	O	0.941496	0.294013	0.814743
	O2288	O	1.010509	0.345913	0.807735
	C2289	C	0.959534	0.440161	0.793010
	C2290	C	0.991588	0.418635	0.801890
	N2291	N	0.982165	0.446389	0.797531
	O2292	O	1.010512	0.417543	0.806436
	O2293	O	0.948088	0.458270	0.786972
	C2294	C	0.450452	0.625562	0.845011
	C2295	C	0.437560	0.633945	0.827165
	C2296	C	0.422579	0.609961	0.810628
	C2297	C	0.420958	0.577994	0.812227
	C2298	C	0.434687	0.568774	0.828565
	C2299	C	0.449427	0.592485	0.845039
	C2300	C	0.444578	0.668573	0.827768
	C2301	C	0.465949	0.654340	0.857670
	N2302	N	0.461829	0.679306	0.846334
	O2303	O	0.479780	0.656709	0.873705
	O2304	O	0.438265	0.684409	0.814354
	C2305	C	0.404065	0.557324	0.792777
	C2306	C	0.406322	0.610830	0.789886
	N2307	N	0.395859	0.578050	0.779785
	O2308	O	0.402425	0.633648	0.782583
	O2309	O	0.397555	0.529030	0.789064
	C2310	C	0.462294	0.574782	0.859068
	C2311	C	0.437728	0.534836	0.830726
	N2312	N	0.455411	0.539199	0.847608
	O2313	O	0.428189	0.507987	0.820139
	O2314	O	0.475676	0.586703	0.876846
	C2315	C	0.270446	0.228524	0.852335
	C2316	C	0.256162	0.204983	0.861057
	C2317	C	0.230366	0.209261	0.868383
	C2318	C	0.219216	0.237139	0.867046
	C2319	C	0.233169	0.262145	0.860386
	C2320	C	0.258832	0.257542	0.852457
	C2321	C	0.273561	0.177120	0.858997
	C2322	C	0.297596	0.216065	0.843642
	N2323	N	0.298627	0.183870	0.846034
	O2324	O	0.315684	0.229436	0.836178
	O2325	O	0.268317	0.154139	0.867732
	C2326	C	0.192423	0.233426	0.872944
	C2327	C	0.210983	0.186684	0.875211
	N2328	N	0.188682	0.202294	0.877062
	O2329	O	0.213100	0.160203	0.878097
	O2330	O	0.176744	0.251491	0.872865
	C2331	C	0.269085	0.287050	0.844594
	C2332	C	0.226160	0.294311	0.857305
	N2333	N	0.248458	0.308426	0.848179
	O2334	O	0.206191	0.306852	0.861122
	O2335	O	0.290217	0.292827	0.836653
	F2336	F	0.836401	0.923580	0.940956
	C2337	C	0.839733	0.893066	0.900371
	C2338	C	0.818216	0.879849	0.897251
	F2339	F	0.794383	0.898520	0.934709
	C2340	C	0.821202	0.847413	0.855488
	C2341	C	0.846073	0.830372	0.816472
	F2342	F	0.849273	0.800710	0.775595
	C2343	C	0.867530	0.843729	0.819572
	F2344	F	0.891122	0.826795	0.781773
	C2345	C	0.864896	0.874611	0.861756
	F2346	F	0.023326	-0.074235	0.753433
	C2347	C	0.013595	-0.034847	0.782280
	C2348	C	0.028696	-0.012049	0.773259
	F2349	F	0.052161	-0.029618	0.735126
	C2350	C	0.019648	0.029162	0.803842
	C2351	C	-0.005580	0.046874	0.842267
	F2352	F	-0.015005	0.086306	0.871227
	C2353	C	-0.020927	0.024091	0.850790
	F2354	F	-0.044983	0.041800	0.887668
	C2355	C	-0.011339	-0.017111	0.821472
	F2356	F	0.968965	0.312702	0.883550
	C2357	C	0.988234	0.282321	0.842477
	C2358	C	1.002435	0.253181	0.838678
	F2359	F	0.996559	0.256155	0.876462
	C2360	C	1.022750	0.221110	0.796003
	C2361	C	1.028923	0.219802	0.757577
	F2362	F	1.048750	0.190093	0.716740
	C2363	C	1.014708	0.248969	0.761382
	F2364	F	1.020882	0.246762	0.723945
	C2365	C	0.994019	0.280554	0.803936
	F2366	F	0.883964	0.342026	0.725898
	C2367	C	0.864406	0.370327	0.768054
	C2368	C	0.841060	0.386465	0.774213
	F2369	F	0.838069	0.373215	0.737858
	C2370	C	0.820735	0.416902	0.818137
	C2371	C	0.823095	0.427404	0.855955
	F2372	F	0.802717	0.453181	0.898257
	C2373	C	0.846539	0.411453	0.849722
	F2374	F	0.849000	0.422350	0.885923
	C2375	C	0.867983	0.384468	0.805667
	F2376	F	0.508475	0.660299	0.770996
	C2377	C	0.499147	0.697042	0.809863
	C2378	C	0.512880	0.724498	0.811761
	F2379	F	0.535304	0.714072	0.774599
	C2380	C	0.503344	0.763135	0.852014
	C2381	C	0.480081	0.773158	0.890702
	F2382	F	0.470547	0.809621	0.929916
	C2383	C	0.466495	0.745587	0.888938
	F2384	F	0.444464	0.755742	0.926478
	C2385	C	0.475609	0.707372	0.848310
	F2386	F	0.490209	0.471282	0.761364
	C2387	C	0.486217	0.473781	0.798206
	C2388	C	0.499506	0.442472	0.792200
	F2389	F	0.515057	0.409541	0.749977
	C2390	C	0.497289	0.445468	0.829899
	C2391	C	0.479632	0.479164	0.874034
	F2392	F	0.476946	0.482272	0.910570
	C2393	C	0.465223	0.509660	0.880103
	F2394	F	0.448119	0.541391	0.922326
	C2395	C	0.468871	0.507814	0.842305
	F2396	F	0.198422	0.128548	0.798693
	C2397	C	0.173454	0.149632	0.831762
	C2398	C	0.153029	0.136873	0.823872
	F2399	F	0.158501	0.103360	0.783534
	C2400	C	0.126826	0.159322	0.857185
	C2401	C	0.121514	0.192685	0.900304
	F2402	F	0.096577	0.213558	0.933576
	C2403	C	0.141985	0.204822	0.908597
	F2404	F	0.136633	0.236226	0.950202
	C2405	C	0.168183	0.184960	0.873370
	F2406	F	0.306502	0.209791	0.918720
	C2407	C	0.324967	0.178773	0.877189
	C2408	C	0.347911	0.162133	0.871516
	F2409	F	0.351154	0.177073	0.907960
	C2410	C	0.367817	0.130349	0.828102
	C2411	C	0.363279	0.113819	0.791056
	F2412	F	0.381318	0.081909	0.749882
	C2413	C	0.340192	0.130535	0.796839
	F2414	F	0.336171	0.114880	0.761113
	C2415	C	0.321057	0.163945	0.839825
	C2416	C	0.763423	0.755875	0.839472
	C2417	C	0.741913	0.753098	0.832598
	C2418	C	0.730853	0.781503	0.831335
	C2419	C	0.741523	0.812278	0.836245
	C2420	C	0.763540	0.814960	0.842838
	C2421	C	0.774395	0.786812	0.844213
	C2422	C	0.734590	0.717159	0.827925
	C2423	C	0.769788	0.722829	0.841833
	N2424	N	0.752428	0.699643	0.832789
	O2425	O	0.785332	0.716590	0.851268
	O2426	O	0.717226	0.704406	0.821678
	C2427	C	0.724575	0.838263	0.835119
	C2428	C	0.707482	0.785893	0.825654
	N2429	N	0.704020	0.821184	0.829783
	O2430	O	0.693598	0.764711	0.818806
	O2431	O	0.726827	0.867624	0.837760
	C2432	C	0.797523	0.796798	0.851374
	C2433	C	0.780101	0.843288	0.847690
	N2434	N	0.800257	0.830727	0.852656
	O2435	O	0.777980	0.871030	0.846930
	O2436	O	0.811747	0.779935	0.854951
	C2437	C	0.046784	0.104201	0.792104
	C2438	C	0.062158	0.095601	0.806434
	C2439	C	0.078277	0.119208	0.819138
	C2440	C	0.078229	0.151623	0.818326
	C2441	C	0.062461	0.160595	0.804518
	C2442	C	0.047053	0.136675	0.790785
	C2443	C	0.054832	0.063120	0.810536
	C2444	C	0.030296	0.076130	0.784117
	N2445	N	0.035475	0.052795	0.796790
	O2446	O	0.014873	0.073188	0.770821
	O2447	O	0.062238	0.048875	0.824486
	C2448	C	0.096908	0.171547	0.833591
	C2449	C	0.095973	0.118727	0.837717
	N2450	N	0.106818	0.150763	0.845143
	O2451	O	0.100559	0.096649	0.845562
	O2452	O	0.103378	0.199230	0.835412
	C2453	C	0.031394	0.154743	0.780428
	C2454	C	0.056118	0.195966	0.806068
	N2455	N	0.036879	0.191185	0.792169
	O2456	O	0.064252	0.224250	0.817670
	O2457	O	0.017217	0.142243	0.764482
	C2458	C	0.771922	0.479412	0.824904
	C2459	C	0.759356	0.451706	0.825932
	C2460	C	0.735347	0.452232	0.826225
	C2461	C	0.724156	0.480013	0.824778
	C2462	C	0.736726	0.508276	0.824072
	C2463	C	0.760316	0.508257	0.824739
	C2464	C	0.776055	0.424452	0.825524
	C2465	C	0.797120	0.471138	0.824493
	N2466	N	0.798732	0.437165	0.823771
	O2467	O	0.813472	0.488438	0.824675
	O2468	O	0.772118	0.397154	0.826816
	C2469	C	0.698487	0.473192	0.826119
	C2470	C	0.718106	0.425674	0.826316
	N2471	N	0.696313	0.439614	0.826096
	O2472	O	0.720971	0.397967	0.826955
	O2473	O	0.682091	0.491751	0.827792
	C2474	C	0.768904	0.541828	0.824425
	C2475	C	0.730326	0.540299	0.820316
	N2476	N	0.749941	0.560299	0.822190
	O2477	O	0.713137	0.547816	0.814613
	O2478	O	0.787711	0.552637	0.825987
	C2479	C	0.550272	0.885426	0.832574
	C2480	C	0.529090	0.869791	0.835637
	C2481	C	0.527624	0.840351	0.842018
	C2482	C	0.546959	0.827356	0.846771
	C2483	C	0.568641	0.842562	0.843029
	C2484	C	0.570648	0.870899	0.835102
	C2485	C	0.509998	0.890548	0.832872
	C2486	C	0.545486	0.916681	0.826624
	N2487	N	0.520299	0.919578	0.829454
	O2488	O	0.559129	0.936374	0.820608
	O2489	O	0.489667	0.885313	0.833385
	C2490	C	0.539721	0.796296	0.853721
	C2491	C	0.507443	0.818395	0.845702
	N2492	N	0.515958	0.791865	0.852061
	O2493	O	0.487893	0.820813	0.843084
	O2494	O	0.550951	0.778283	0.860078
	C2495	C	0.596148	0.880553	0.832037
	C2496	C	0.591777	0.834794	0.847782
	N2497	N	0.608054	0.857570	0.839649
	O2498	O	0.596212	0.814776	0.858208
	O2499	O	0.605715	0.902667	0.824562
	C2500	C	0.555095	0.333819	0.839024
	C2501	C	0.532722	0.342760	0.837835
	C2502	C	0.529472	0.370327	0.829907
	C2503	C	0.549212	0.387762	0.821385
	C2504	C	0.571842	0.378653	0.822162
	C2505	C	0.574652	0.352521	0.831938
	C2506	C	0.515464	0.318398	0.845534
	C2507	C	0.551993	0.304887	0.850462
	N2508	N	0.527969	0.296206	0.852913
	O2509	O	0.566232	0.291015	0.856657
	O2510	O	0.495166	0.316069	0.844786
	C2511	C	0.540079	0.417123	0.816232
	C2512	C	0.507046	0.387386	0.829702
	N2513	N	0.514250	0.416617	0.823331
	O2514	O	0.486624	0.379781	0.834210
	O2515	O	0.551047	0.438169	0.808107
	C2516	C	0.600116	0.351052	0.833048
	C2517	C	0.595500	0.393610	0.815069
	N2518	N	0.611717	0.376304	0.822318
	O2519	O	0.600861	0.416262	0.805778
	O2520	O	0.609438	0.333876	0.842351
	C2521	C	0.447222	0.148867	0.846317
	C2522	C	0.462471	0.131977	0.854412
	C2523	C	0.459494	0.097436	0.850558
	C2524	C	0.441153	0.080016	0.839014
	C2525	C	0.424432	0.098662	0.833862
	C2526	C	0.427964	0.132419	0.836606
	C2527	C	0.481221	0.155604	0.863952
	C2528	C	0.455952	0.183561	0.849567
	N2529	N	0.476621	0.185925	0.859964
	O2530	O	0.448384	0.205235	0.843465
	O2531	O	0.497183	0.150882	0.873438
	C2532	C	0.444155	0.042179	0.834583
	C2533	C	0.474097	0.072586	0.855398
	N2534	N	0.464841	0.039062	0.843738
	O2535	O	0.490184	0.078705	0.867774
	O2536	O	0.432579	0.017913	0.824728
	C2537	C	0.408734	0.145077	0.827548
	C2538	C	0.401705	0.089629	0.824726
	N2539	N	0.392658	0.119499	0.822780
	O2540	O	0.391954	0.063550	0.820529
	O2541	O	0.406481	0.171232	0.824139
	F2542	F	0.655429	0.817865	0.756819
	C2543	C	0.656352	0.832068	0.795123
	C2544	C	0.680283	0.823267	0.792578
	F2545	F	0.702283	0.800874	0.751776
	C2546	C	0.681603	0.837319	0.832223
	C2547	C	0.658931	0.864350	0.874513
	F2548	F	0.660197	0.881546	0.913063
	C2549	C	0.635024	0.873073	0.876972
	F2550	F	0.613501	0.898445	0.917740
	C2551	C	0.633028	0.855177	0.837295
	F2552	F	0.716112	0.700505	0.905111
	C2553	C	0.733207	0.665782	0.866642
	C2554	C	0.732038	0.631450	0.863711
	F2555	F	0.713382	0.633436	0.899106
	C2556	C	0.750076	0.594872	0.824171
	C2557	C	0.768869	0.593710	0.787326
	F2558	F	0.785769	0.558929	0.748575
	C2559	C	0.770077	0.628091	0.790325
	F2560	F	0.788485	0.626069	0.754712
	C2561	C	0.752169	0.664709	0.830019
	F2562	F	0.611255	0.429545	0.904325
	C2563	C	0.632837	0.417194	0.865103
	C2564	C	0.653253	0.434198	0.866028
	F2565	F	0.651296	0.462828	0.906231
	C2566	C	0.675848	0.421687	0.825214
	C2567	C	0.678072	0.390351	0.783562
	F2568	F	0.700043	0.376504	0.744207
	C2569	C	0.657585	0.373539	0.782645
	F2570	F	0.659890	0.343997	0.742503
	C2571	C	0.634375	0.387641	0.823370
	F2572	F	0.450379	0.038479	0.918547
	C2573	C	0.470332	0.008619	0.878004
	C2574	C	0.484898	-0.019699	0.874925
	F2575	F	0.478928	-0.016750	0.912731
	C2576	C	0.505801	-0.051246	0.832688
	C2577	C	0.510983	-0.054313	0.793591
	F2578	F	0.529975	-0.085240	0.752681
	C2579	C	0.496682	-0.025695	0.796725
	F2580	F	0.502329	-0.029283	0.758667
	C2581	C	0.476579	0.006781	0.839222
	F2582	F	0.552701	0.215221	0.786097
	C2583	C	0.529307	0.227586	0.822675
	C2584	C	0.516297	0.200297	0.824150
	F2585	F	0.527255	0.161849	0.789073
	C2586	C	0.491584	0.212693	0.861709
	C2587	C	0.481200	0.252649	0.899267
	F2588	F	0.458537	0.264893	0.936942
	C2589	C	0.494045	0.279980	0.897605
	F2590	F	0.483206	0.318146	0.933523
	C2591	C	0.517776	0.267984	0.858522
	N2592	N	0.850308	0.126579	0.799424
	N2593	N	0.860010	0.136680	0.778400
	N2594	N	0.332101	0.381475	0.954857
	N2595	N	0.335914	0.350427	0.941953
	N2596	N	0.727811	0.269629	0.822892
	N2597	N	0.710105	0.260335	0.833009
	N2598	N	0.802694	0.054408	0.812432
	N2599	N	0.801717	0.032893	0.781256
	N2600	N	0.130648	0.448843	0.242628
	N2601	N	0.136116	0.469498	0.234232
	N2602	N	0.399799	0.332639	0.862981
	N2603	N	0.415748	0.306012	0.844330
	N2604	N	0.314008	0.781974	0.992192
	N2605	N	0.307141	0.758674	0.994601
	N2606	N	0.733482	0.391539	0.906716
	N2607	N	0.754280	0.383634	0.896875
	N2608	N	0.622747	0.170219	0.277314
	N2609	N	0.638189	0.144512	0.262414
	N2610	N	0.568810	0.582276	0.027184
	N2611	N	0.570095	0.568293	0.042944
	N2612	N	0.772704	0.309570	0.216752
	N2613	N	0.755658	0.335390	0.246723
	N2614	N	0.128125	0.325902	0.437667
	N2615	N	0.148954	0.318156	0.427722
	N2616	N	0.879085	0.156385	0.865940
	N2617	N	0.896046	0.167431	0.866869
	N2618	N	0.180783	0.810852	0.465677
	N2619	N	0.179192	0.838011	0.496543
	N2620	N	0.729953	0.284602	0.949454
	N2621	N	0.708655	0.298260	0.973266
	C2622	C	0.166168	0.476058	0.609651
	O2623	O	0.152970	0.505774	0.624103
	O2624	O	0.179383	0.446342	0.595198
	C2625	C	0.832809	0.585359	0.505800
	O2626	O	0.825607	0.583401	0.536253
	O2627	O	0.840002	0.587312	0.475381
	C2628	C	0.283583	0.551049	0.560340
	O2629	O	0.279911	0.567236	0.546370
	O2630	O	0.287272	0.534863	0.574311
	C2631	C	0.604215	0.733153	0.831770
	O2632	O	0.597921	0.719251	0.803863
	O2633	O	0.610509	0.747055	0.859677
	C2634	C	0.154161	0.261589	0.473213
	O2635	O	0.132756	0.281298	0.492689
	O2636	O	0.175549	0.241904	0.453737
	C2637	C	0.878582	0.686592	0.194041
	O2638	O	0.861969	0.680238	0.184543
	O2639	O	0.895185	0.692940	0.203572
	C2640	C	0.070779	0.773221	0.957609
	O2641	O	0.087225	0.786549	0.946357
	O2642	O	0.054324	0.759912	0.968896
	C2643	C	0.887565	0.244767	0.396065
	O2644	O	0.866321	0.253187	0.403050
	O2645	O	0.908808	0.236324	0.389079
	C2646	C	0.364029	0.040298	0.312895
	O2647	O	0.377778	0.014926	0.305565
	O2648	O	0.350280	0.065645	0.320224
	C2649	C	0.436295	0.330658	0.169678
	O2650	O	0.434306	0.310614	0.181550
	O2651	O	0.438291	0.350719	0.157841
	C2652	C	0.054648	0.331336	0.393862
	O2653	O	0.065180	0.311597	0.398026
	O2654	O	0.044117	0.351099	0.389699
	C2655	C	0.163769	0.418982	0.667219
	O2656	O	0.179283	0.392868	0.655520
	O2657	O	0.148255	0.445095	0.678919
	C2658	C	0.332437	0.297044	0.104780
	O2659	O	0.347544	0.273011	0.097106
	O2660	O	0.317312	0.321077	0.112453
	C2661	C	0.371647	0.246061	0.642753
	O2662	O	0.386206	0.218443	0.605590
	O2663	O	0.357088	0.273679	0.679917
	C2664	C	0.922209	0.237317	0.511787
	O2665	O	0.905417	0.235423	0.502944
	O2666	O	0.938983	0.239210	0.520631
	C2667	C	0.791396	0.804849	0.739412
	O2668	O	0.775201	0.790300	0.748394
	O2669	O	0.807590	0.819398	0.730431
	C2670	C	0.105518	0.541277	0.891644
	O2671	O	0.091933	0.568001	0.929875
	O2672	O	0.119113	0.514558	0.853380
	C2673	C	0.413949	0.296364	0.411274
	O2674	O	0.418649	0.268951	0.410035
	O2675	O	0.409266	0.323776	0.412513
	C2676	C	0.947605	0.025799	0.988338
	O2677	O	0.931196	0.052329	1.002859
	O2678	O	0.964023	-0.000773	0.973782
	C2679	C	0.938395	0.160255	0.234886
	O2680	O	0.922961	0.161819	0.224253
	O2681	O	0.953828	0.158690	0.245519
	C2682	C	0.187088	0.682692	0.697604
	O2683	O	0.194830	0.709472	0.714534
	O2684	O	0.179335	0.655954	0.680708
	C2685	C	0.459737	0.473370	0.330926
	O2686	O	0.446792	0.454380	0.317884
	O2687	O	0.472672	0.492376	0.344002
	C2688	C	0.096267	0.378030	0.590553
	O2689	O	0.075298	0.374631	0.605108
	O2690	O	0.117220	0.381429	0.575997
	C2691	C	0.431217	0.427996	0.794538
	O2692	O	0.446700	0.433019	0.769281
	O2693	O	0.415744	0.422980	0.819761
	C2694	C	0.487797	0.229189	0.100788
	O2695	O	0.471818	0.236210	0.093837
	O2696	O	0.503803	0.222126	0.107705
	C2697	C	0.173629	0.424070	0.973920
	O2698	O	0.154720	0.445232	1.009500
	O2699	O	0.192548	0.402891	0.938305
	C2700	C	0.590101	0.688835	0.648294
	O2701	O	0.576852	0.716963	0.685801
	O2702	O	0.603350	0.660707	0.610786
	C2703	C	0.823455	0.608729	0.271258
	O2704	O	0.836743	0.605004	0.284540
	O2705	O	0.810167	0.612478	0.257975
	C2706	C	0.826293	0.600939	0.166891
	O2707	O	0.844529	0.581929	0.159355
	O2708	O	0.808041	0.619949	0.174427
	C2709	C	0.377595	0.719058	0.300404
	O2710	O	0.360682	0.738284	0.338427
	O2711	O	0.394500	0.699873	0.262414
	C2712	C	0.140384	0.272652	0.076013
	O2713	O	0.124668	0.262098	0.065036
	O2714	O	0.156100	0.283229	0.086990
	C2715	C	0.679046	0.449178	0.949936
	O2716	O	0.664199	0.436955	0.966625
	O2717	O	0.693893	0.461378	0.933247
	C2718	C	0.398771	0.348850	0.989921
	O2719	O	0.377851	0.350261	0.993844
	O2720	O	0.419681	0.347480	0.986032
	C2721	C	0.231169	0.618123	0.920687
	O2722	O	0.215184	0.603165	0.914252
	O2723	O	0.247154	0.633105	0.927122
	C2724	C	0.189803	0.685636	0.124944
	O2725	O	0.186150	0.680345	0.096143
	O2726	O	0.193474	0.690903	0.153746
	C2727	C	0.380719	0.415092	0.683805
	O2728	O	0.365877	0.398397	0.674790
	O2729	O	0.395554	0.431793	0.692786
	C2730	C	0.065707	0.993726	0.864426
	O2731	O	0.080784	0.999376	0.877467
	O2732	O	0.050631	0.988075	0.851384
	C2733	C	0.029551	0.528235	0.904686
	O2734	O	0.045929	0.536324	0.914562
	O2735	O	0.013190	0.520169	0.894810
	C2736	C	0.895292	0.029948	0.321841
	O2737	O	0.885390	0.036243	0.357628
	O2738	O	0.905195	0.023653	0.286054
	C2739	C	0.687923	0.350583	0.196862
	O2740	O	0.673979	0.350014	0.182788
	O2741	O	0.701893	0.351158	0.210902
	C2742	C	0.896539	0.448954	0.264754
	O2743	O	0.877117	0.451312	0.292420
	O2744	O	0.915935	0.446613	0.237123
	C2745	C	0.541728	0.070738	0.126183
	O2746	O	0.555840	0.086197	0.139087
	O2747	O	0.527607	0.055296	0.113314
	C2748	C	0.660018	0.596352	0.886724
	O2749	O	0.654837	0.601566	0.864770
	O2750	O	0.665182	0.591115	0.908678
	C2751	C	0.118534	0.515044	0.382404
	O2752	O	0.127183	0.504726	0.344931
	O2753	O	0.109886	0.525338	0.419877
	C2754	C	0.102737	0.536214	0.220296
	O2755	O	0.105473	0.553714	0.252366
	O2756	O	0.099974	0.518732	0.188260
	C2757	C	0.817150	0.719631	0.043805
	O2758	O	0.839328	0.703928	0.016173
	O2759	O	0.794965	0.735316	0.071402
	C2760	C	0.834501	0.674640	0.513473
	O2761	O	0.815240	0.673372	0.537698
	O2762	O	0.853752	0.675926	0.489283
	C2763	C	0.838449	0.620283	0.890578
	O2764	O	0.858978	0.625173	0.884866
	O2765	O	0.817893	0.615411	0.896324
	C2766	C	0.965029	0.498377	0.956199
	O2767	O	0.983282	0.484072	0.953411
	O2768	O	0.946766	0.512700	0.959020
	C2769	C	0.861339	0.532105	0.287568
	O2770	O	0.853620	0.563477	0.322185
	O2771	O	0.869031	0.500774	0.252986
	C2772	C	0.039904	0.819241	0.672966
	O2773	O	0.047218	0.846750	0.679710
	O2774	O	0.032617	0.791690	0.666187
	C2775	C	0.688556	0.641231	0.798908
	O2776	O	0.704020	0.624102	0.798908
	O2777	O	0.673093	0.658360	0.798908
	C2778	C	0.460368	0.471306	0.008121
	O2779	O	0.465362	0.487602	0.037679
	O2780	O	0.455382	0.455052	-0.021403
	C2781	C	0.894962	0.473725	0.941781
	O2782	O	0.914742	0.451084	0.908746
	O2783	O	0.875173	0.496384	0.974849
	C2784	C	0.307968	0.347939	0.038918
	O2785	O	0.322144	0.328061	0.038092
	O2786	O	0.293802	0.367823	0.039710
	C2787	C	0.080029	0.364727	0.082860
	O2788	O	0.081656	0.378650	0.064004
	O2789	O	0.078394	0.350811	0.101683
	C2790	C	0.050339	0.315236	0.719661
	O2791	O	0.031799	0.316448	0.715772
	O2792	O	0.068868	0.314017	0.723584
	C2793	C	0.669610	0.717319	0.089158
	O2794	O	0.686701	0.688855	0.067685
	O2795	O	0.652492	0.745800	0.110664
	C2796	C	0.674216	0.451850	0.290115
	O2797	O	0.658617	0.439099	0.304636
	O2798	O	0.689832	0.464578	0.275594
	C2799	C	0.669403	0.600972	0.988579
	O2800	O	0.646610	0.607957	1.005165
	O2801	O	0.692187	0.594029	0.972027
	C2802	C	0.385899	0.244054	0.301126
	O2803	O	0.364471	0.249622	0.327072
	O2804	O	0.407355	0.238445	0.275146
	C2805	C	0.461547	0.958598	0.639829
	O2806	O	0.464046	0.987402	0.666634
	O2807	O	0.459020	0.929788	0.613057
	C2808	C	0.466476	0.434541	0.654969
	O2809	O	0.468337	0.465992	0.667047
	O2810	O	0.464597	0.403067	0.642891
	C2811	C	0.434000	0.431499	0.582432
	O2812	O	0.442223	0.445572	0.607689
	O2813	O	0.425788	0.417384	0.557140
	C2814	C	0.837004	0.584830	0.615707
	O2815	O	0.816522	0.608540	0.642375
	O2816	O	0.857485	0.561120	0.589039
	C2817	C	0.104205	0.277570	0.741305
	O2818	O	0.090177	0.258410	0.744024
	O2819	O	0.118244	0.296735	0.738552
	C2820	C	0.118624	0.496545	0.952792
	O2821	O	0.111551	0.519442	0.949007
	O2822	O	0.125723	0.473608	0.956543
	C2823	C	0.422071	0.453770	0.508312
	O2824	O	0.421227	0.427694	0.476516
	O2825	O	0.422914	0.479822	0.540107
	C2826	C	0.049875	0.815071	0.406870
	O2827	O	0.036912	0.803389	0.389630
	O2828	O	0.062821	0.826730	0.424109
	C2829	C	0.297973	0.562133	0.894776
	O2830	O	0.311597	0.582121	0.902553
	O2831	O	0.284350	0.542169	0.886999
	C2832	C	0.333988	0.375021	0.360484
	O2833	O	0.353110	0.360388	0.355323
	O2834	O	0.314866	0.389676	0.365646
	C2835	C	0.166764	0.350882	0.037095
	O2836	O	0.151223	0.335320	0.045628
	O2837	O	0.182312	0.366461	0.028595
	C2838	C	0.675317	0.390543	0.572453
	O2839	O	0.661134	0.380656	0.557587
	O2840	O	0.689517	0.400429	0.587318
	C2841	C	0.612308	0.753443	0.204846
	O2842	O	0.620418	0.721296	0.171295
	O2843	O	0.604198	0.785615	0.238396
	C2844	C	0.159299	0.783508	0.865389
	O2845	O	0.162379	0.808617	0.894810
	O2846	O	0.156218	0.758375	0.835968
	C2847	C	0.024631	0.525716	0.571421
	O2848	O	0.034216	0.538361	0.594648
	O2849	O	0.015045	0.513095	0.548193
	C2850	C	0.574905	0.998865	0.135027
	O2851	O	0.559964	0.989163	0.121848
	O2852	O	0.589836	1.008584	0.148240
	C2853	C	0.853921	0.514669	0.863221
	O2854	O	0.858031	0.543890	0.869519
	O2855	O	0.849812	0.485425	0.856924
	C2856	C	0.873163	0.979883	0.672346
	O2857	O	0.862452	0.990811	0.710267
	O2858	O	0.883881	0.968949	0.634461
	C2859	C	0.062769	0.886055	0.172087
	O2860	O	0.060444	0.915737	0.176801
	O2861	O	0.065086	0.856332	0.167338
	C2862	C	0.090676	0.432149	0.718594
	O2863	O	0.096628	0.414060	0.680020
	O2864	O	0.084716	0.450196	0.757134
	C2865	C	0.056691	0.349695	0.196518
	O2866	O	0.042451	0.330267	0.195968
	O2867	O	0.070947	0.369122	0.197069
	C2868	C	0.626833	0.718468	0.382369
	O2869	O	0.632551	0.689796	0.346238
	O2870	O	0.621108	0.747122	0.418466
	C2871	C	0.459674	0.755564	0.129005
	O2872	O	0.463351	0.751648	0.153058
	O2873	O	0.455987	0.759498	0.104986
	C2874	C	0.381628	0.226268	0.797807
	O2875	O	0.396317	0.199620	0.760093
	O2876	O	0.366929	0.252909	0.835555
	C2877	C	0.395295	0.713406	0.476860
	O2878	O	0.405920	0.697793	0.437529
	O2879	O	0.384687	0.729044	0.516192
	C2880	C	0.016770	0.551195	0.261382
	O2881	O	0.033899	0.559703	0.268952
	O2882	O	-0.000375	0.542686	0.253812
	C2883	C	0.428094	0.931214	0.850834
	O2884	O	0.444645	0.946297	0.845638
	O2885	O	0.411544	0.916131	0.856030
	C2886	C	0.360019	0.269562	0.475071
	O2887	O	0.349517	0.302893	0.505456
	O2888	O	0.370549	0.236214	0.444652
	C2889	C	0.604826	0.747106	0.574105
	O2890	O	0.598405	0.780039	0.588729
	O2891	O	0.611238	0.714191	0.559514
	C2892	C	0.661366	0.585837	0.234301
	O2893	O	0.655072	0.596710	0.217474
	O2894	O	0.667670	0.574947	0.251093
	C2895	C	0.938981	0.151576	0.638487
	O2896	O	0.954888	0.163687	0.623415
	O2897	O	0.923064	0.139482	0.653593
	C2898	C	0.626758	0.751284	0.057741
	O2899	O	0.610399	0.779883	0.076907
	O2900	O	0.643127	0.722644	0.038540
	C2901	C	0.620889	0.784834	0.697982
	O2902	O	0.632371	0.769220	0.658651
	O2903	O	0.609379	0.800465	0.737348
	C2904	C	0.045438	0.284416	0.257700
	O2905	O	0.036097	0.259332	0.242491
	O2906	O	0.054789	0.309460	0.272875
	C2907	C	0.518747	0.794773	0.406973
	O2908	O	0.534951	0.791212	0.415300
	O2909	O	0.502570	0.798317	0.398611
	C2910	C	0.313619	0.357625	0.678781
	O2911	O	0.331608	0.337981	0.671073
	O2912	O	0.295622	0.377251	0.686455
	C2913	C	0.532789	0.544671	0.855169
	O2914	O	0.552636	0.552100	0.844605
	O2915	O	0.512925	0.537243	0.865733
	C2916	C	0.890851	0.743416	0.459793
	O2917	O	0.903448	0.716564	0.451844
	O2918	O	0.878270	0.770269	0.467742
	C2919	C	0.058055	0.275042	0.947321
	O2920	O	0.072430	0.294352	0.949248
	O2921	O	0.043663	0.255732	0.945394
	C2922	C	0.570160	0.003825	0.480646
	O2923	O	0.560404	-0.003252	0.458244
	O2924	O	0.579888	0.010896	0.503081
	C2925	C	0.424986	0.224621	0.454356
	O2926	O	0.443851	0.198527	0.422939
	O2927	O	0.406103	0.250714	0.485773
	C2928	C	0.715751	0.932990	0.606141
	O2929	O	0.717958	0.959844	0.605108
	O2930	O	0.713552	0.906153	0.607207
	C2931	C	0.744709	0.884655	0.764601
	O2932	O	0.745207	0.917129	0.786039
	O2933	O	0.744203	0.852140	0.743129
	C2934	C	0.101032	0.531046	0.557484
	O2935	O	0.099111	0.561457	0.588729
	O2936	O	0.102935	0.500635	0.526240
	C2937	C	0.379957	0.729969	0.989026
	O2938	O	0.379069	0.751770	1.024194
	O2939	O	0.380863	0.708168	0.953859
	C2940	C	0.901767	0.519615	0.048828
	O2941	O	0.894300	0.496072	0.025877
	O2942	O	0.909234	0.543158	0.071780
	C2943	C	0.531179	0.240670	0.385707
	O2944	O	0.528924	0.230813	0.408625
	O2945	O	0.533435	0.250503	0.362790
	C2946	C	0.935284	0.689342	0.097003
	O2947	O	0.937523	0.714631	0.093080
	O2948	O	0.933037	0.664012	0.100892
	C2949	C	0.848279	0.624847	0.084615
	O2950	O	0.854086	0.597708	0.083170
	O2951	O	0.842472	0.651963	0.086061
	C2952	C	0.610555	0.027572	0.383161
	O2953	O	0.610773	0.031143	0.356286
	O2954	O	0.610328	0.023995	0.410070
	C2955	C	0.329704	0.431935	0.832458
	O2956	O	0.347711	0.409760	0.795880
	O2957	O	0.311698	0.454110	0.869037
	C2958	C	0.550162	0.533161	0.137470
	O2959	O	0.542164	0.511484	0.114140
	O2960	O	0.558151	0.554832	0.160835
	C2961	C	0.732012	0.921996	0.071608
	O2962	O	0.725886	0.893741	0.065070
	O2963	O	0.738128	0.950270	0.078181
	C2964	C	0.534619	0.593663	0.491795
	O2965	O	0.543366	0.587393	0.509550
	O2966	O	0.525872	0.599957	0.474039
	C2967	C	0.716232	0.933993	0.713192
	O2968	O	0.712024	0.942850	0.693062
	O2969	O	0.720441	0.925136	0.733322
	C2970	C	0.338834	0.597928	0.239635
	O2971	O	0.356494	0.610101	0.241734
	O2972	O	0.321182	0.585750	0.237570
	C2973	C	0.412609	0.480896	0.937961
	O2974	O	0.429024	0.455884	0.926193
	O2975	O	0.396202	0.505926	0.949764
	C2976	C	0.835474	0.671336	0.375659
	O2977	O	0.855793	0.666845	0.373526
	O2978	O	0.815173	0.675850	0.377793
	C2979	C	0.052236	0.276330	0.597813
	O2980	O	0.068771	0.289577	0.604145
	O2981	O	0.035683	0.263107	0.591482
	C2982	C	0.578959	0.544713	0.613952
	O2983	O	0.598948	0.529623	0.579989
	O2984	O	0.558987	0.559779	0.647915
	C2985	C	0.924516	0.227836	0.807717
	O2986	O	0.943272	0.227056	0.811158
	O2987	O	0.905766	0.228610	0.804311
	C2988	C	0.592189	0.722150	0.976191
	O2989	O	0.608798	0.733864	0.983727
	O2990	O	0.575590	0.710396	0.968621
	C2991	C	0.426404	0.429033	0.159561
	O2992	O	0.435905	0.403090	0.120643
	O2993	O	0.416902	0.454953	0.198480
	C2994	C	0.967032	0.704870	0.168990
	O2995	O	0.957567	0.727366	0.208665
	O2996	O	0.976525	0.682380	0.129280
	C2997	C	0.611188	0.285421	0.863531
	O2998	O	0.598496	0.313756	0.901073
	O2999	O	0.623906	0.257068	0.825955
	C3000	C	0.326120	0.311024	0.794435
	O3001	O	0.344432	0.286240	0.778159
	O3002	O	0.307798	0.335801	0.810745
	C3003	C	0.394086	0.786257	0.103679
	O3004	O	0.403888	0.753720	0.087024
	O3005	O	0.384284	0.818817	0.120333
	C3006	C	0.678817	0.716128	0.762295
	O3007	O	0.661226	0.743899	0.783527
	O3008	O	0.696426	0.688333	0.741064
	C3009	C	0.429534	0.920473	0.514953
	O3010	O	0.415542	0.904012	0.525414
	O3011	O	0.443525	0.936911	0.504492
	C3012	C	0.683032	0.595634	0.641652
	O3013	O	0.679166	0.627964	0.672071
	O3014	O	0.686889	0.563298	0.611268
	C3015	C	0.952201	0.720831	0.915284
	O3016	O	0.955881	0.751369	0.926743
	O3017	O	0.948521	0.690293	0.903826
	C3018	C	0.377700	0.234483	0.138124
	O3019	O	0.376560	0.267833	0.158598
	O3020	O	0.378840	0.201134	0.117649
	C3021	C	0.255879	0.688837	0.742681
	O3022	O	0.268351	0.705285	0.729812
	O3023	O	0.243390	0.672366	0.755551
	C3024	C	0.914802	0.661514	0.576685
	O3025	O	0.928240	0.673155	0.592927
	O3026	O	0.901353	0.649868	0.560478
	C3027	C	0.398937	0.282962	0.085097
	O3028	O	0.408937	0.251599	0.071539
	O3029	O	0.388948	0.314330	0.098620
	C3030	C	0.874191	0.050567	0.972819
	O3031	O	0.855328	0.075317	1.006403
	O3032	O	0.893043	0.025835	0.939269
	C3033	C	0.625117	0.295172	0.549467
	O3034	O	0.618494	0.328740	0.579301
	O3035	O	0.631729	0.261646	0.519667
	C3036	C	0.330731	0.415308	0.499262
	O3037	O	0.345196	0.401170	0.460860
	O3038	O	0.316257	0.429464	0.537698
	C3039	C	0.286591	0.104014	0.548159
	O3040	O	0.294752	0.129284	0.567119
	O3041	O	0.278422	0.078726	0.529164
	C3042	C	0.175395	0.425253	0.297375
	O3043	O	0.157482	0.427198	0.326762
	O3044	O	0.193301	0.423291	0.267954
	C3045	C	0.373275	0.254932	0.919414
	O3046	O	0.358731	0.249654	0.905305
	O3047	O	0.387830	0.260216	0.933488
	C3048	C	0.072452	0.408884	0.478443
	O3049	O	0.062918	0.432861	0.517912
	O3050	O	0.081987	0.384907	0.438975
	C3051	C	0.656691	0.589059	0.538627
	O3052	O	0.661784	0.581840	0.503391
	O3053	O	0.651591	0.596260	0.573829
	C3054	C	0.573393	0.002807	0.799184
	O3055	O	0.589850	0.012104	0.808509
	O3056	O	0.556936	-0.006467	0.789858
	C3057	C	0.844961	0.693569	0.703109
	O3058	O	0.825278	0.718836	0.727747
	O3059	O	0.864654	0.668284	0.678437
	C3060	C	0.589859	0.557821	0.271361
	O3061	O	0.574757	0.541098	0.278106
	O3062	O	0.604971	0.574527	0.264582
	C3063	C	0.451551	0.932958	0.386327
	O3064	O	0.435485	0.938641	0.378756
	O3065	O	0.467600	0.927299	0.393897
	C3066	C	0.331112	0.316942	0.440454
	O3067	O	0.310890	0.338408	0.457281
	O3068	O	0.351326	0.295457	0.423593
	C3069	C	0.525060	0.764377	0.052407
	O3070	O	0.514129	0.762177	0.033068
	O3071	O	0.535992	0.766554	0.071746
	C3072	C	0.551601	0.665614	0.006125
	O3073	O	0.572924	0.645983	-0.023743
	O3074	O	0.530278	0.685245	0.035993
	C3075	C	0.638280	0.522519	0.688175
	O3076	O	0.624387	0.553974	0.709200
	O3077	O	0.652173	0.491088	0.667150
	C3078	C	0.069446	0.841282	0.524141
	O3079	O	0.061713	0.813711	0.512234
	O3080	O	0.077197	0.868853	0.536047
	C3081	C	0.346933	0.015256	0.415300
	O3082	O	0.357110	-0.017691	0.396615
	O3083	O	0.336756	0.048226	0.433985
	C3084	C	0.446642	0.314215	0.511822
	O3085	O	0.437998	0.339791	0.550671
	O3086	O	0.455303	0.288639	0.472972
	C3087	C	0.796759	0.312901	0.119921
	O3088	O	0.779425	0.303930	0.137401
	O3089	O	0.814094	0.321896	0.102440
	C3090	C	0.964124	0.505805	0.295586
	O3091	O	0.951514	0.505318	0.279379
	O3092	O	0.976733	0.506269	0.311793
	C3093	C	0.956017	0.735746	0.562302
	O3094	O	0.965030	0.760057	0.580367
	O3095	O	0.947004	0.711436	0.544236
	C3096	C	0.298758	0.495890	0.220296
	O3097	O	0.317897	0.483646	0.217096
	O3098	O	0.279610	0.508176	0.223531
	C3099	C	0.867315	0.503169	0.142425
	O3100	O	0.855644	0.516881	0.181240
	O3101	O	0.879014	0.489439	0.103576
	C3102	C	0.052477	0.324744	0.494651
	O3103	O	0.035972	0.309196	0.494547
	O3104	O	0.068999	0.340268	0.494754
	C3105	C	0.919575	0.721007	0.709579
	O3106	O	0.902254	0.711605	0.703075
	O3107	O	0.936902	0.730404	0.716117
	C3108	C	0.576158	0.073550	0.009050
	O3109	O	0.574293	0.063720	-0.022849
	O3110	O	0.578033	0.083337	0.040914
	C3111	C	0.925328	0.698678	0.011149
	O3112	O	0.905868	0.690607	0.013730
	O3113	O	0.944761	0.706768	0.008603
	C3114	C	0.195795	0.287571	0.125598
	O3115	O	0.209835	0.256371	0.105021
	O3116	O	0.181765	0.318777	0.146141
	C3117	C	0.920726	0.242347	0.183958
	O3118	O	0.940023	0.245682	0.185782
	O3119	O	0.901402	0.239005	0.182169
	C3120	C	0.894903	0.473898	0.588970
	O3121	O	0.895068	0.505989	0.613470
	O3122	O	0.894738	0.441784	0.564470
	C3123	C	0.454602	0.965080	0.986308
	O3124	O	0.461651	0.985774	1.011909
	O3125	O	0.447536	0.944385	0.960706
	C3126	C	0.689870	0.648703	0.474108
	O3127	O	0.709335	0.623265	0.450881
	O3128	O	0.670405	0.674141	0.497335
	C3129	C	0.658714	0.659759	0.191081
	O3130	O	0.681030	0.642778	0.165927
	O3131	O	0.636389	0.676758	0.216270
	C3132	C	0.880788	0.527132	0.762468
	O3133	O	0.871374	0.560782	0.792233
	O3134	O	0.890218	0.493458	0.732702
	C3135	C	0.932729	0.617987	0.398955
	O3136	O	0.938411	0.644675	0.422217
	O3137	O	0.927056	0.591281	0.375659
	C3138	C	0.163588	0.217730	0.792749
	O3139	O	0.151128	0.246574	0.804139
	O3140	O	0.176031	0.188862	0.781359
	C3141	C	0.351919	0.021568	0.933488
	O3142	O	0.366621	-0.009170	0.912704
	O3143	O	0.337217	0.052306	0.954272
	C3144	C	0.666980	0.950877	0.162142
	O3145	O	0.661161	0.933115	0.177008
	O3146	O	0.672791	0.968622	0.147242
	C3147	C	0.900536	0.521059	0.403119
	O3148	O	0.892435	0.494576	0.398542
	O3149	O	0.908665	0.547549	0.407661
	C3150	C	0.563157	0.116721	0.350884
	O3151	O	0.563398	0.089310	0.351021
	O3152	O	0.562942	0.144139	0.350712
	C3153	C	0.629257	0.988972	0.679573
	O3154	O	0.609923	1.011028	0.714086
	O3155	O	0.648591	0.966917	0.645059
	C3156	C	0.758666	0.863530	0.095042
	O3157	O	0.753449	0.897787	0.116720
	O3158	O	0.763884	0.829249	0.073363
	C3159	C	0.894778	0.022307	0.091566
	O3160	O	0.894390	0.009588	0.111146
	O3161	O	0.895156	0.035021	0.072021
	C3162	C	0.668985	0.343450	0.867351
	O3163	O	0.672440	0.347272	0.895739
	O3164	O	0.665530	0.339605	0.838962
	C3165	C	0.120565	0.983769	0.723962
	O3166	O	0.105525	0.996234	0.719110
	O3167	O	0.135615	0.971262	0.728780
	C3168	C	0.858223	0.908166	0.122639
	O3169	O	0.844981	0.887756	0.124084
	O3170	O	0.871464	0.928576	0.121194
