data_Molecule from CHK

_cell_length_a		60.157638
_cell_length_b		60.320084
_cell_length_c		40.125421
_cell_angle_alpha	51.557934
_cell_angle_beta	125.438720
_cell_angle_gamma	120.157534
_symmetry_space_group_name_H-M	'P 1'
_symmetry_Int_Tables_number		1

loop_
	_symmetry_equiv_pos_as_xyz
	x,y,z

loop_
	_atom_site_label
	_atom_site_type_symbol
	_atom_site_fract_x
	_atom_site_fract_y
	_atom_site_fract_z
	C0	C	0.021086	0.027387	0.020585
	C1	C	-0.004190	0.014133	0.025566
	C2	C	-0.017914	-0.013903	0.029959
	C3	C	-0.006153	-0.028408	0.029543
	C4	C	0.019451	-0.015087	0.024739
	C5	C	0.033002	0.012656	0.020278
	C6	C	-0.011345	0.034646	0.025752
	C7	C	0.030002	0.057582	0.014281
	N8	N	0.009343	0.060831	0.016875
	O9	O	0.050122	0.076312	0.007957
	O10	O	-0.029948	0.030684	0.033278
	C11	C	-0.026140	-0.056950	0.031987
	C12	C	-0.045241	-0.033313	0.034901
	N13	N	-0.049402	-0.058579	0.034749
	O14	O	-0.061159	-0.029152	0.038295
	O15	O	-0.024295	-0.075233	0.030671
	C16	C	0.059971	0.020883	0.016741
	C17	C	0.037171	-0.025538	0.024038
	N18	N	0.061457	-0.003124	0.019842
	O19	O	0.032860	-0.047948	0.026143
	O20	O	0.077667	0.042870	0.012385
	F21	F	-0.010548	0.155382	-0.074313
	C22	C	-0.000355	0.133620	-0.032890
	C23	C	-0.001399	0.108830	-0.029789
	F24	F	-0.013406	0.106820	-0.068312
	C25	C	0.009953	0.086120	0.013000
	C26	C	0.021979	0.088917	0.052470
	F27	F	0.033255	0.067653	0.093610
	C28	C	0.022107	0.113214	0.049521
	F29	F	0.032898	0.114756	0.088089
	C30	C	0.010908	0.135995	0.006718
	F31	F	0.896472	0.844582	0.097897
	C32	C	0.898407	0.870808	0.061777
	C33	C	0.922549	0.892348	0.067724
	F34	F	0.943361	0.886467	0.109501
	C35	C	0.925417	0.919897	0.030481
	C36	C	0.902960	0.925505	-0.012492
	F37	F	0.904944	0.951797	-0.048573
	C38	C	0.878779	0.904076	-0.018356
	F39	F	0.857747	0.910037	-0.059996
	C40	C	0.876239	0.876251	0.018513
	F41	F	0.155901	-0.013649	0.096298
	C42	C	0.132103	-0.009533	0.058576
	C43	C	0.109043	-0.009927	0.059286
	F44	F	0.110668	-0.015275	0.098172
	C45	C	0.084158	-0.004747	0.019893
	C46	C	0.082362	-0.001226	-0.019329
	F47	F	0.058431	0.002411	-0.056815
	C48	C	0.105155	-0.001683	-0.019581
	F49	F	0.102955	0.001096	-0.056975
	C50	C	0.130563	-0.005088	0.018865
	C51	C	0.036796	0.218227	0.035245
	C52	C	0.021513	0.229501	0.035048
	C53	C	-0.007672	0.220519	0.018974
	C54	C	-0.021480	0.200124	0.003434
	C55	C	-0.006039	0.188310	0.004359
	C56	C	0.022931	0.197108	0.020490
	C57	C	0.041529	0.250598	0.054067
	C58	C	0.067147	0.233279	0.051684
	N59	N	0.068534	0.252691	0.062069
	O60	O	0.086988	0.230793	0.055067
	O61	O	0.036681	0.263563	0.061914
	C62	C	-0.052474	0.195624	-0.012934
	C63	C	-0.029037	0.228576	0.015629
	N64	N	-0.055619	0.213615	-0.005043
	O65	O	-0.025640	0.243787	0.028586
	O66	O	-0.071700	0.180400	-0.029672
	C67	C	0.033510	0.180218	0.018417
	C68	C	-0.014844	0.164610	-0.006483
	N69	N	0.009883	0.160034	0.004041
	O70	O	-0.037789	0.151043	-0.020724
	O71	O	0.056795	0.182170	0.026637
	C72	C	0.776173	0.818361	-0.020919
	C73	C	0.761814	0.799050	-0.038547
	C74	C	0.776502	0.787763	-0.039945
	C75	C	0.805221	0.797048	-0.026636
	C76	C	0.819314	0.819372	-0.014318
	C77	C	0.804997	0.829476	-0.010475
	C78	C	0.731448	0.791379	-0.048408
	C79	C	0.755734	0.821091	-0.013926
	N80	N	0.729179	0.803834	-0.030403
	O81	O	0.760087	0.833269	0.004749
	O82	O	0.712111	0.777689	-0.068040
	C83	C	0.814619	0.778831	-0.028328
	C84	C	0.766797	0.762504	-0.047526
	N85	N	0.790516	0.757307	-0.038661
	O86	O	0.743608	0.748046	-0.057836
	O87	O	0.837226	0.780629	-0.022455
	C88	C	0.825740	0.851463	0.006656
	C89	C	0.849590	0.834889	-0.000302
	N90	N	0.852069	0.854348	0.011005
	O91	O	0.868746	0.832682	0.000827
	O92	O	0.821786	0.864886	0.014851
	C93	C	0.195742	-0.029811	0.011179
	C94	C	0.216653	-0.013263	-0.005646
	C95	C	0.225531	0.016562	-0.020249
	C96	C	0.213251	0.029921	-0.018623
	C97	C	0.190944	0.013541	-0.004210
	C98	C	0.182520	-0.016216	0.011203
	C99	C	0.226532	-0.032919	-0.002970
	C100	C	0.192340	-0.061109	0.027187
	N101	N	0.212018	-0.061477	0.018703
	O102	O	0.176853	-0.082428	0.044215
	O103	O	0.242645	-0.027030	-0.017218
	C104	C	0.228074	0.061549	-0.034667
	C105	C	0.248720	0.038692	-0.036423
	N106	N	0.249448	0.065269	-0.044181
	O107	O	0.264496	0.035429	-0.041419
	O108	O	0.224006	0.080648	-0.038473
	C109	C	0.158538	-0.027916	0.024456
	C110	C	0.173244	0.021672	0.000305
	N111	N	0.153791	-0.004088	0.016842
	O112	O	0.174230	0.044755	-0.007616
	O113	O	0.145031	-0.052208	0.038508
	F114	F	0.908783	0.242427	-0.096415
	C115	C	0.902334	0.233506	-0.062593
	C116	C	0.879670	0.240788	-0.073050
	F117	F	0.864075	0.256359	-0.116972
	C118	C	0.873013	0.231999	-0.037885
	C119	C	0.887706	0.213220	0.007313
	F120	F	0.879991	0.202403	0.040831
	C121	C	0.910375	0.206022	0.017733
	F122	F	0.924632	0.188610	0.061246
	C123	C	0.918806	0.217189	-0.016798
	F124	F	0.113434	0.238639	0.149025
	C125	C	0.113892	0.266462	0.117284
	C126	C	0.135793	0.287919	0.128516
	F127	F	0.155734	0.280595	0.171218
	C128	C	0.137237	0.317155	0.095579
	C129	C	0.116093	0.324357	0.051205
	F130	F	0.117175	0.352215	0.019268
	C131	C	0.094082	0.302978	0.040118
	F132	F	0.074236	0.310404	-0.002699
	C133	C	0.092353	0.273747	0.073223
	F134	F	0.711875	0.746039	0.024436
	C135	C	0.698265	0.764590	0.009127
	C136	C	0.676684	0.754168	0.022385
	F137	F	0.670597	0.725989	0.051145
	C138	C	0.661502	0.772683	0.006324
	C139	C	0.668787	0.802039	-0.023509
	F140	F	0.654759	0.820448	-0.039620
	C141	C	0.690671	0.812525	-0.036381
	F142	F	0.697212	0.840679	-0.064698
	C143	C	0.706065	0.794008	-0.019710
	F144	F	0.772212	0.754054	-0.116706
	C145	C	0.777216	0.730154	-0.076076
	C146	C	0.769806	0.703744	-0.074548
	F147	F	0.756496	0.702425	-0.113989
	C148	C	0.775972	0.678634	-0.032446
	C149	C	0.790236	0.681086	0.007968
	F150	F	0.797604	0.657738	0.048584
	C151	C	0.796480	0.707268	0.006393
	F152	F	0.809239	0.708703	0.045641
	C153	C	0.789295	0.732096	-0.035848
	F154	F	0.254896	0.917016	0.103468
	C155	C	0.242558	0.904471	0.076933
	C156	C	0.252854	0.882770	0.090586
	F157	F	0.274897	0.874343	0.130276
	C158	C	0.240433	0.869575	0.063161
	C159	C	0.216127	0.877116	0.023471
	F160	F	0.202539	0.863023	-0.001144
	C161	C	0.206129	0.899255	0.009274
	F162	F	0.183589	0.907091	-0.029739
	C163	C	0.219670	0.913722	0.035235
	F164	F	0.243236	0.110961	-0.133941
	C165	C	0.268058	0.111885	-0.099182
	C166	C	0.290833	0.134113	-0.108366
	F167	F	0.287788	0.154264	-0.151951
	C168	C	0.316997	0.135604	-0.072511
	C169	C	0.319382	0.115144	-0.027077
	F170	F	0.343857	0.116969	0.007805
	C171	C	0.296664	0.092889	-0.017916
	F172	F	0.299372	0.073493	0.025788
	C173	C	0.270974	0.090328	-0.053903
	C174	C	0.784780	0.262136	-0.050597
	C175	C	0.788442	0.243052	-0.054580
	C176	C	0.814330	0.246869	-0.051845
	C177	C	0.835872	0.270167	-0.046400
	C178	C	0.831735	0.290019	-0.044169
	C179	C	0.806502	0.285513	-0.044994
	C180	C	0.761415	0.220683	-0.060655
	C181	C	0.755392	0.253226	-0.055006
	N182	N	0.742392	0.228154	-0.060818
	O183	O	0.744029	0.264682	-0.054750
	O184	O	0.755615	0.200449	-0.065409
	C185	C	0.860916	0.268748	-0.044244
	C186	C	0.825122	0.229353	-0.052371
	N187	N	0.853474	0.243331	-0.046653
	O188	O	0.813325	0.207884	-0.056861
	O189	O	0.883373	0.285129	-0.041084
	C190	C	0.808373	0.308807	-0.039272
	C191	C	0.850566	0.316944	-0.038952
	N192	N	0.834967	0.327611	-0.037429
	O193	O	0.874080	0.328412	-0.036602
	O194	O	0.791959	0.311598	-0.034936
	C195	C	0.184518	0.381063	0.115998
	C196	C	0.199852	0.376880	0.105168
	C197	C	0.224333	0.397181	0.099052
	C198	C	0.233708	0.420779	0.105733
	C199	C	0.217495	0.425924	0.113660
	C200	C	0.192792	0.406543	0.118319
	C201	C	0.184210	0.350397	0.098253
	C202	C	0.158543	0.357092	0.116503
	N203	N	0.159631	0.339305	0.105803
	O204	O	0.139566	0.352741	0.123555
	O205	O	0.189922	0.340087	0.087200
	C206	C	0.259553	0.439477	0.096211
	C207	C	0.242866	0.401418	0.080795
	N208	N	0.263537	0.427459	0.079656
	O209	O	0.240706	0.387311	0.067063
	O210	O	0.274425	0.460726	0.101073
	C211	C	0.179878	0.419789	0.123273
	C212	C	0.221167	0.451923	0.114494
	N213	N	0.197317	0.448023	0.117735
	O214	O	0.240109	0.472897	0.112392
	O215	O	0.159425	0.409948	0.130756
	C216	C	0.598098	0.731599	0.033607
	C217	C	0.608312	0.752672	0.046432
	C218	C	0.592388	0.754697	0.059262
	C219	C	0.567963	0.734087	0.063332
	C220	C	0.558132	0.712400	0.051637
	C221	C	0.572655	0.711698	0.035414
	C222	C	0.635602	0.770764	0.040549
	C223	C	0.616530	0.737804	0.013644
	N224	N	0.639017	0.761307	0.019300
	O225	O	0.612987	0.726704	-0.006047
	O226	O	0.652129	0.789276	0.051900
	C227	C	0.554726	0.742296	0.075278
	C228	C	0.594560	0.777881	0.065599
	N229	N	0.570311	0.770081	0.072203
	O230	O	0.612203	0.799637	0.064305
	O231	O	0.534784	0.729508	0.085236
	C232	C	0.555806	0.687932	0.021656
	C233	C	0.531932	0.688839	0.050008
	N234	N	0.531514	0.675217	0.030956
	O235	O	0.514068	0.682032	0.061565
	O236	O	0.560704	0.680639	0.005185
	C237	C	0.747017	0.572066	-0.048314
	C238	C	0.768131	0.595921	-0.044551
	C239	C	0.764129	0.614570	-0.039563
	C240	C	0.739640	0.608356	-0.036387
	C241	C	0.718269	0.584156	-0.040366
	C242	C	0.721945	0.566527	-0.047116
	C243	C	0.792560	0.595051	-0.045133
	C244	C	0.756287	0.556057	-0.053878
	N245	N	0.784018	0.570397	-0.050593
	O246	O	0.743785	0.535222	-0.060207
	O247	O	0.815245	0.610928	-0.041404
	C248	C	0.741815	0.631449	-0.029720
	C249	C	0.782486	0.642113	-0.035926
	N250	N	0.767584	0.651657	-0.031301
	O251	O	0.805231	0.654761	-0.036914
	O252	O	0.726049	0.633183	-0.022721
	C253	C	0.696504	0.542304	-0.049767
	C254	C	0.690198	0.570955	-0.036954
	N255	N	0.678251	0.545787	-0.042872
	O256	O	0.679355	0.579165	-0.030306
	O257	O	0.691369	0.523337	-0.056918
	C258	C	0.282712	0.831832	0.081119
	C259	C	0.264343	0.808311	0.101390
	C260	C	0.265386	0.780024	0.119463
	C261	C	0.285248	0.775559	0.118152
	C262	C	0.303559	0.799191	0.097418
	C263	C	0.302262	0.827282	0.078595
	C264	C	0.246211	0.819610	0.099657
	C265	C	0.275548	0.859047	0.062719
	N266	N	0.253194	0.850224	0.074455
	O267	O	0.285732	0.883891	0.041955
	O268	O	0.229665	0.806574	0.117085
	C269	C	0.280809	0.743616	0.137698
	C270	C	0.247409	0.750876	0.139944
	N271	N	0.257566	0.729878	0.149728
	O272	O	0.227640	0.745302	0.146269
	O273	O	0.293193	0.730962	0.141844
	C274	C	0.324324	0.847680	0.058812
	C275	C	0.326177	0.800416	0.090490
	N276	N	0.337972	0.830080	0.067243
	O277	O	0.333719	0.781070	0.101208
	O278	O	0.330274	0.873636	0.039494
	C279	C	0.421227	0.230212	-0.099469
	C280	C	0.399433	0.222058	-0.088397
	C281	C	0.378913	0.196636	-0.088223
	C282	C	0.381093	0.179220	-0.097404
	C283	C	0.404139	0.186652	-0.105738
	C284	C	0.424016	0.212047	-0.106681
	C285	C	0.405829	0.242394	-0.072507
	C286	C	0.439562	0.258276	-0.098458
	N287	N	0.430215	0.263882	-0.079717
	O288	O	0.458354	0.273768	-0.111400
	O289	O	0.394491	0.240682	-0.054173
	C290	C	0.356682	0.153523	-0.094048
	C291	C	0.353556	0.182006	-0.076913
	N292	N	0.340841	0.156454	-0.081722
	O293	O	0.344909	0.189301	-0.065457
	O294	O	0.350582	0.133674	-0.099979
	C295	C	0.447714	0.213219	-0.110950
	C296	C	0.414469	0.170819	-0.110178
	N297	N	0.441598	0.187118	-0.110364
	O298	O	0.403458	0.148942	-0.113386
	O299	O	0.468684	0.231657	-0.113267
	F300	F	0.873018	0.330686	0.044018
	C301	C	0.863567	0.354366	0.006651
	C302	C	0.872703	0.379550	0.009506
	F303	F	0.891505	0.379958	0.049569
	C304	C	0.862502	0.404368	-0.028986
	C305	C	0.843283	0.403345	-0.070550
	F306	F	0.833745	0.426949	-0.108054
	C307	C	0.834174	0.378158	-0.073415
	F308	F	0.815644	0.377729	-0.113540
	C309	C	0.844272	0.353339	-0.034859
	F310	F	0.699684	0.247410	-0.147235
	C311	C	0.692920	0.224345	-0.111584
	C312	C	0.664978	0.211202	-0.118321
	F313	F	0.644960	0.221635	-0.160370
	C314	C	0.657560	0.186924	-0.081514
	C315	C	0.678777	0.176190	-0.037800
	F316	F	0.672011	0.152883	-0.002303
	C317	C	0.706722	0.189353	-0.031042
	F318	F	0.726689	0.178477	0.010818
	C319	C	0.714133	0.213761	-0.067794
	F320	F	0.294056	0.513854	-0.039125
	C321	C	0.297202	0.487525	-0.003090
	C322	C	0.278768	0.470976	0.018720
	F323	F	0.258355	0.482011	0.003793
	C324	C	0.281475	0.443158	0.056197
	C325	C	0.302696	0.432045	0.070519
	F326	F	0.305219	0.405274	0.105312
	C327	C	0.321232	0.448700	0.048804
	F328	F	0.341239	0.437596	0.062581
	C329	C	0.319319	0.477014	0.012851
	F330	F	0.191624	0.502394	0.037914
	C331	C	0.191121	0.497700	0.074639
	C332	C	0.189124	0.520287	0.073187
	F333	F	0.188291	0.546283	0.035913
	C334	C	0.187558	0.515961	0.110185
	C335	C	0.190546	0.489328	0.150150
	F336	F	0.191634	0.485498	0.187511
	C337	C	0.191804	0.466604	0.151069
	F338	F	0.192089	0.440639	0.188004
	C339	C	0.192472	0.470374	0.113767
	F340	F	0.483644	0.690145	-0.048471
	C341	C	0.484885	0.662237	-0.021849
	C342	C	0.462538	0.641601	-0.034482
	F343	F	0.440078	0.649721	-0.073558
	C344	C	0.463445	0.612331	-0.006711
	C345	C	0.486899	0.604124	0.034526
	F346	F	0.488008	0.576166	0.061612
	C347	C	0.509217	0.624747	0.047161
	F348	F	0.531539	0.616579	0.086518
	C349	C	0.508662	0.654103	0.018748
	F350	F	0.588440	0.797495	0.123327
	C351	C	0.565684	0.802843	0.084047
	C352	C	0.550787	0.820949	0.069802
	F353	F	0.559481	0.832911	0.095505
	C354	C	0.526858	0.826901	0.028753
	C355	C	0.518565	0.814799	0.001846
	F356	F	0.496206	0.820903	-0.038072
	C357	C	0.533468	0.796837	0.015963
	F358	F	0.525219	0.785858	-0.010872
	C359	C	0.556971	0.790140	0.057709
	F360	F	0.679461	0.491994	0.035009
	C361	C	0.654659	0.497540	0.000719
	C362	C	0.630532	0.475964	0.004190
	F363	F	0.632292	0.450171	0.042050
	C364	C	0.604341	0.480942	-0.031337
	C365	C	0.603040	0.508030	-0.070723
	F366	F	0.578222	0.513205	-0.105272
	C367	C	0.627187	0.529686	-0.074113
	F368	F	0.625415	0.555481	-0.111935
	C369	C	0.653350	0.524815	-0.038351
	F370	F	0.783930	0.577135	-0.126066
	C371	C	0.800445	0.561191	-0.083558
	C372	C	0.816296	0.547434	-0.077536
	F373	F	0.815185	0.550517	-0.114357
	C374	C	0.833429	0.530337	-0.033296
	C375	C	0.833792	0.526813	0.004809
	F376	F	0.849709	0.510239	0.047505
	C377	C	0.817936	0.540551	-0.001291
	F378	F	0.818481	0.536941	0.035462
	C379	C	0.801269	0.558157	-0.045481
	F380	F	0.328875	0.830267	-0.009039
	C381	C	0.355028	0.838894	0.016865
	C382	C	0.377032	0.846513	0.006469
	F383	F	0.372080	0.845156	-0.029231
	C384	C	0.404524	0.855730	0.032870
	C385	C	0.409579	0.856531	0.070715
	F386	F	0.435741	0.865181	0.096541
	C387	C	0.387617	0.848557	0.081503
	F388	F	0.392854	0.849326	0.117942
	C389	C	0.360060	0.839774	0.054652
	F390	F	0.267404	0.678707	0.235081
	C391	C	0.248223	0.676634	0.196404
	C392	C	0.234862	0.649496	0.198050
	F393	F	0.242225	0.625790	0.238026
	C394	C	0.213937	0.646962	0.158119
	C395	C	0.207408	0.672206	0.116355
	F396	F	0.187798	0.670287	0.077612
	C397	C	0.221140	0.699231	0.114554
	F398	F	0.214620	0.723113	0.074213
	C399	C	0.241944	0.701829	0.154419
	F400	F	0.461280	0.138305	-0.028116
	C401	C	0.472144	0.152861	-0.059394
	C402	C	0.493596	0.144167	-0.049681
	F403	F	0.503003	0.121372	-0.009525
	C404	C	0.505548	0.159142	-0.081510
	C405	C	0.496591	0.183988	-0.121972
	F406	F	0.509327	0.200355	-0.151172
	C407	C	0.474282	0.191772	-0.132625
	F408	F	0.464420	0.213893	-0.173531
	C409	C	0.462007	0.176731	-0.101263
	F410	F	0.405806	0.305059	-0.108506
	C411	C	0.432621	0.305493	-0.079309
	C412	C	0.447565	0.326142	-0.063869
	F413	F	0.434478	0.344517	-0.077249
	C414	C	0.475955	0.327964	-0.034627
	C415	C	0.488556	0.307519	-0.019550
	F416	F	0.515334	0.307898	0.009842
	C417	C	0.473575	0.286739	-0.034732
	F418	F	0.486471	0.267744	-0.020039
	C419	C	0.445335	0.285317	-0.064794
	C420	C	0.900793	0.468558	-0.008953
	C421	C	0.873798	0.467733	-0.020665
	C422	C	0.869041	0.488329	-0.020884
	C423	C	0.891405	0.509218	-0.008964
	C424	C	0.918714	0.509026	0.005169
	C425	C	0.923323	0.488954	0.004649
	C426	C	0.854678	0.442476	-0.030543
	C427	C	0.899737	0.445341	-0.013881
	N428	N	0.871590	0.429912	-0.025952
	O429	O	0.917982	0.440447	-0.010918
	O430	O	0.830073	0.433213	-0.039777
	C431	C	0.880494	0.528172	-0.011932
	C432	C	0.842782	0.493749	-0.033056
	N433	N	0.851124	0.517997	-0.026905
	O434	O	0.819000	0.481089	-0.045809
	O435	O	0.892971	0.548138	-0.003452
	C436	C	0.954269	0.493679	0.021540
	C437	C	0.946510	0.528216	0.020468
	N438	N	0.967015	0.517719	0.030010
	O439	O	0.951777	0.548365	0.025030
	O440	O	0.967066	0.480279	0.028191
	C441	C	0.537884	0.127521	-0.093063
	C442	C	0.560533	0.148899	-0.083059
	C443	C	0.584909	0.155071	-0.086986
	C444	C	0.586011	0.140323	-0.101971
	C445	C	0.563356	0.118404	-0.111157
	C446	C	0.539554	0.111739	-0.106000
	C447	C	0.552355	0.162080	-0.070905
	C448	C	0.514398	0.126508	-0.088334
	N449	N	0.524076	0.148202	-0.075984
	O450	O	0.491217	0.111537	-0.094555
	O451	O	0.565815	0.180388	-0.058607
	C452	C	0.614227	0.151415	-0.103277
	C453	C	0.612307	0.176673	-0.079208
	N454	N	0.629244	0.172847	-0.088499
	O455	O	0.619590	0.194347	-0.067956
	O456	O	0.623335	0.144577	-0.114720
	C457	C	0.519443	0.086763	-0.116019
	C458	C	0.558575	0.099185	-0.127635
	N459	N	0.532388	0.079637	-0.127539
	O460	O	0.573003	0.099693	-0.139768
	O461	O	0.496967	0.074002	-0.113946
	C462	C	0.414701	0.531224	-0.046760
	C463	C	0.391447	0.508748	-0.042181
	C464	C	0.373183	0.508631	-0.031373
	C465	C	0.379578	0.529625	-0.020836
	C466	C	0.403707	0.551850	-0.023648
	C467	C	0.420455	0.553302	-0.038582
	C468	C	0.392585	0.486069	-0.045525
	C469	C	0.430802	0.524344	-0.055861
	N470	N	0.417351	0.495978	-0.051755
	O471	O	0.451202	0.538446	-0.064588
	O472	O	0.376914	0.463031	-0.042007
	C473	C	0.359258	0.520123	-0.001583
	C474	C	0.346582	0.487641	-0.025957
	N475	N	0.339794	0.494879	-0.006061
	O476	O	0.332723	0.468611	-0.036763
	O477	O	0.359322	0.529862	0.016938
	C478	C	0.444798	0.578663	-0.037612
	C479	C	0.416966	0.576432	-0.012412
	N480	N	0.441903	0.591316	-0.020614
	O481	O	0.409045	0.582947	0.001171
	O482	O	0.463620	0.587457	-0.048519
	C483	C	0.158751	0.588610	0.131375
	C484	C	0.181165	0.584722	0.135267
	C485	C	0.176527	0.565693	0.121810
	C486	C	0.149400	0.551431	0.103587
	C487	C	0.126939	0.555137	0.100213
	C488	C	0.131587	0.573448	0.114506
	C489	C	0.207077	0.605000	0.151848
	C490	C	0.169642	0.610125	0.147664
	N491	N	0.198668	0.620024	0.157923
	O492	O	0.157073	0.618457	0.151177
	O493	O	0.230560	0.609284	0.157956
	C494	C	0.150354	0.532542	0.092398
	C495	C	0.195962	0.556177	0.123036
	N496	N	0.178806	0.535801	0.105589
	O497	O	0.220886	0.563060	0.136006
	O498	O	0.131723	0.517054	0.075577
	C499	C	0.103835	0.573238	0.106607
	C500	C	0.096146	0.542282	0.083065
	N501	N	0.083373	0.554319	0.087183
	O502	O	0.083467	0.524790	0.069170
	O503	O	0.098632	0.585498	0.115142
	C504	C	0.471699	0.918937	-0.046212
	C505	C	0.491185	0.914306	-0.048084
	C506	C	0.495381	0.886294	-0.023144
	C507	C	0.480040	0.863161	0.003341
	C508	C	0.460575	0.867948	0.005663
	C509	C	0.456608	0.895805	-0.018906
	C510	C	0.504971	0.943142	-0.077958
	C511	C	0.472879	0.950874	-0.073533
	N512	N	0.493384	0.964374	-0.091568
	O513	O	0.460186	0.963805	-0.078941
	O514	O	0.522669	0.948263	-0.088456
	C515	C	0.489965	0.836379	0.027260
	C516	C	0.514622	0.875000	-0.018863
	N517	N	0.511469	0.845215	0.013682
	O518	O	0.529562	0.887326	-0.038979
	O519	O	0.482281	0.811914	0.052962
	C520	C	0.434976	0.894850	-0.010165
	C521	C	0.440974	0.847921	0.030410
	N522	N	0.426334	0.865537	0.019626
	O523	O	0.437266	0.822195	0.054591
	O524	O	0.426023	0.914147	-0.023984
	C525	C	0.541035	0.435481	-0.005711
	C526	C	0.542299	0.418885	-0.017354
	C527	C	0.521895	0.393108	-0.015916
	C528	C	0.501294	0.384193	-0.001651
	C529	C	0.499639	0.401482	0.008496
	C530	C	0.519108	0.427308	0.005525
	C531	C	0.566739	0.434932	-0.031605
	C532	C	0.565050	0.461371	-0.009272
	N533	N	0.579695	0.460118	-0.025336
	O534	O	0.571860	0.479985	-0.000117
	O535	O	0.574531	0.428822	-0.045888
	C536	C	0.483173	0.355676	-0.000917
	C537	C	0.514848	0.372248	-0.031312
	N538	N	0.491370	0.350128	-0.021219
	O539	O	0.525146	0.373817	-0.051012
	O540	O	0.465381	0.339854	0.014327
	C541	C	0.510305	0.442766	0.012645
	C542	C	0.477447	0.399636	0.017040
	N543	N	0.484145	0.425979	0.016424
	O544	O	0.457358	0.380615	0.022884
	O545	O	0.521485	0.465327	0.013905
	F546	F	-0.008300	0.560252	-0.033065
	C547	C	0.008047	0.549991	0.011987
	C548	C	0.036874	0.559144	0.026200
	F549	F	0.048122	0.578415	-0.005249
	C550	C	0.054274	0.548029	0.073204
	C551	C	0.042216	0.529071	0.105717
	F552	F	0.058659	0.519431	0.150727
	C553	C	0.013349	0.520054	0.091475
	F554	F	0.001987	0.501866	0.122775
	C555	C	-0.003989	0.529634	0.044497
	F556	F	0.546430	-0.016169	-0.038204
	C557	C	0.531236	0.003217	-0.076711
	C558	C	0.540470	0.031763	-0.085265
	F559	F	0.564544	0.039511	-0.054913
	C560	C	0.524500	0.052235	-0.124412
	C561	C	0.500161	0.043943	-0.156806
	F562	F	0.485122	0.063364	-0.195447
	C563	C	0.491184	0.015388	-0.148608
	F564	F	0.468197	0.007784	-0.180079
	C565	C	0.505693	-0.005642	-0.107016
	F566	F	0.459060	0.479900	0.035345
	C567	C	0.453523	0.468856	0.010346
	C568	C	0.469182	0.450292	0.028613
	F569	F	0.489161	0.443360	0.071061
	C570	C	0.464352	0.439086	0.002825
	C571	C	0.441589	0.444639	-0.039884
	F572	F	0.434935	0.432128	-0.063541
	C573	C	0.425946	0.463342	-0.058335
	F574	F	0.404825	0.468976	-0.099670
	C575	C	0.432303	0.476389	-0.034014
	C576	C	0.011116	0.018980	0.169780
	C577	C	-0.017020	0.007719	0.162058
	C578	C	-0.031258	-0.016848	0.155286
	C579	C	-0.017465	-0.029540	0.155155
	C580	C	0.010763	-0.017552	0.161359
	C581	C	0.025026	0.006346	0.169240
	C582	C	-0.026464	0.025990	0.163209
	C583	C	0.020574	0.045223	0.175347
	N584	N	-0.003185	0.048825	0.169588
	O585	O	0.043264	0.060920	0.183174
	O586	O	-0.048745	0.023160	0.159843
	C587	C	-0.038131	-0.055140	0.146897
	C588	C	-0.060779	-0.034390	0.148823
	N589	N	-0.063629	-0.057264	0.144322
	O590	O	-0.079105	-0.031117	0.148182
	O591	O	-0.034779	-0.071280	0.143038
	C592	C	0.054960	0.013503	0.177003
	C593	C	0.030971	-0.025920	0.162347
	N594	N	0.057460	-0.007169	0.173758
	O595	O	0.026711	-0.043803	0.153710
	O596	O	0.073939	0.032693	0.184221
	F597	F	-0.028795	0.140243	0.077260
	C598	C	-0.017208	0.119409	0.118859
	C599	C	-0.015808	0.095532	0.122720
	F600	F	-0.025371	0.094050	0.084568
	C601	C	-0.004347	0.073109	0.165991
	C602	C	0.005765	0.075352	0.205253
	F603	F	0.016252	0.053921	0.247066
	C604	C	0.005047	0.099629	0.201250
	F605	F	0.015674	0.101641	0.239299
	C606	C	-0.006620	0.121962	0.158015
	F607	F	0.883635	0.847785	0.216406
	C608	C	0.885332	0.872533	0.178079
	C609	C	0.909719	0.894183	0.180600
	F610	F	0.931318	0.890055	0.221359
	C611	C	0.912029	0.920272	0.141014
	C612	C	0.889214	0.923993	0.098771
	F613	F	0.890829	0.948563	0.060248
	C614	C	0.864789	0.902394	0.096278
	F615	F	0.843308	0.906531	0.055428
	C616	C	0.862440	0.876373	0.135898
	F617	F	0.139465	-0.046699	0.271947
	C618	C	0.124238	-0.028487	0.230730
	C619	C	0.099003	-0.027722	0.223622
	F620	F	0.090157	-0.045365	0.258030
	C621	C	0.082850	-0.008562	0.181033
	C622	C	0.092854	0.009905	0.145973
	F623	F	0.077810	0.028449	0.105055
	C624	C	0.118117	0.009223	0.153127
	F625	F	0.127373	0.027622	0.119153
	C626	C	0.133958	-0.010423	0.195340
	C627	C	0.022247	0.212985	0.166970
	C628	C	0.009845	0.224638	0.171375
	C629	C	-0.017865	0.212614	0.167459
	C630	C	-0.033047	0.188509	0.160146
	C631	C	-0.020294	0.176118	0.157001
	C632	C	0.007010	0.188580	0.159632
	C633	C	0.031028	0.249287	0.181511
	C634	C	0.051505	0.231192	0.171187
	N635	N	0.055566	0.252508	0.180391
	O636	O	0.068794	0.229132	0.167779
	O637	O	0.029033	0.263661	0.190447
	C638	C	-0.062265	0.181725	0.155456
	C639	C	-0.035965	0.220967	0.170615
	N640	N	-0.062777	0.202642	0.160839
	O641	O	-0.030152	0.239168	0.179876
	O642	O	-0.082107	0.163121	0.148007
	C643	C	0.014972	0.170794	0.155260
	C644	C	-0.030052	0.148914	0.153704
	N645	N	-0.007581	0.146475	0.154158
	O646	O	-0.051908	0.131522	0.151660
	O647	O	0.035533	0.175413	0.151744
	C648	C	0.766320	0.810883	0.132270
	C649	C	0.750768	0.787799	0.122461
	C650	C	0.762774	0.776114	0.117049
	C651	C	0.789474	0.788917	0.117511
	C652	C	0.804086	0.814227	0.122253
	C653	C	0.793107	0.824550	0.131365
	C654	C	0.722823	0.777879	0.123731
	C655	C	0.749874	0.813849	0.146394
	N656	N	0.723802	0.793225	0.140494
	O657	O	0.756935	0.828774	0.162534
	O658	O	0.702733	0.760801	0.111937
	C659	C	0.796495	0.771000	0.111830
	C660	C	0.752884	0.748306	0.115839
	N661	N	0.774202	0.745971	0.113770
	O662	O	0.731549	0.730348	0.117195
	O663	O	0.816020	0.775771	0.105678
	C664	C	0.814497	0.850353	0.138367
	C665	C	0.832842	0.832552	0.124044
	N666	N	0.837812	0.854186	0.133122
	O667	O	0.849372	0.830159	0.119414
	O668	O	0.813396	0.865410	0.147073
	C669	C	0.202386	-0.040204	0.202392
	C670	C	0.227728	-0.025688	0.197558
	C671	C	0.240252	0.002302	0.193231
	C672	C	0.227907	0.015468	0.195099
	C673	C	0.201914	0.001167	0.198780
	C674	C	0.189006	-0.026243	0.201539
	C675	C	0.236970	-0.044926	0.198157
	C676	C	0.194517	-0.069572	0.206359
	N677	N	0.216471	-0.071201	0.204337
	O678	O	0.174325	-0.088779	0.210838
	O679	O	0.257237	-0.040265	0.193857
	C680	C	0.246160	0.045284	0.189051
	C681	C	0.266664	0.022895	0.186177
	N682	N	0.269111	0.048396	0.183677
	O683	O	0.282930	0.019860	0.181880
	O684	O	0.242829	0.063749	0.187902
	C685	C	0.160956	-0.035072	0.202224
	C686	C	0.183574	0.009696	0.201380
	N687	N	0.158687	-0.012362	0.201331
	O688	O	0.188125	0.030105	0.204764
	O689	O	0.142862	-0.056443	0.202557
	F690	F	0.913088	0.244110	0.073134
	C691	C	0.902753	0.232210	0.104057
	C692	C	0.882140	0.242838	0.092496
	F693	F	0.872647	0.264647	0.050575
	C694	C	0.871247	0.231169	0.124260
	C695	C	0.880480	0.207420	0.167176
	F696	F	0.869378	0.195137	0.197255
	C697	C	0.901119	0.196678	0.178775
	F698	F	0.909618	0.173931	0.219768
	C699	C	0.913215	0.209615	0.147906
	F700	F	0.103999	0.237099	0.259671
	C701	C	0.103523	0.265175	0.231416
	C702	C	0.125768	0.285871	0.244177
	F703	F	0.147675	0.277570	0.284268
	C704	C	0.125270	0.315266	0.215902
	C705	C	0.102748	0.323555	0.173131
	F706	F	0.101923	0.351566	0.145161
	C707	C	0.081042	0.302942	0.159639
	F708	F	0.060292	0.311358	0.117859
	C709	C	0.080365	0.273375	0.189721
	F710	F	0.710004	0.736764	0.204370
	C711	C	0.696908	0.756033	0.188274
	C712	C	0.676584	0.746866	0.203334
	F713	F	0.671542	0.719442	0.235264
	C714	C	0.661201	0.765846	0.185195
	C715	C	0.668510	0.794878	0.154462
	F716	F	0.655341	0.813976	0.138577
	C717	C	0.689323	0.804219	0.140115
	F718	F	0.695610	0.832026	0.110362
	C719	C	0.703628	0.784850	0.156330
	F720	F	0.764309	0.745927	0.037408
	C721	C	0.765296	0.720932	0.076192
	C722	C	0.758390	0.695224	0.076294
	F723	F	0.750780	0.695630	0.037429
	C724	C	0.759178	0.668846	0.116687
	C725	C	0.768682	0.669075	0.157481
	F726	F	0.770392	0.644129	0.196677
	C727	C	0.776058	0.694949	0.157376
	F728	F	0.785951	0.694992	0.196843
	C729	C	0.772910	0.721003	0.116137
	F730	F	0.237839	0.884201	0.291422
	C731	C	0.231773	0.883229	0.254652
	C732	C	0.238426	0.861511	0.260971
	F733	F	0.250684	0.841773	0.303760
	C734	C	0.232663	0.860281	0.223058
	C735	C	0.218616	0.880390	0.178832
	F736	F	0.211605	0.878608	0.142230
	C737	C	0.212314	0.902344	0.172541
	F738	F	0.199819	0.921978	0.129920
	C739	C	0.219376	0.904469	0.210403
	F740	F	0.256734	0.096484	0.096833
	C741	C	0.283412	0.096846	0.126696
	C742	C	0.304406	0.119735	0.112421
	F743	F	0.297684	0.141373	0.069149
	C744	C	0.332514	0.120237	0.142518
	C745	C	0.338924	0.097767	0.187990
	F746	F	0.365580	0.097589	0.217645
	C747	C	0.317862	0.075290	0.202615
	F748	F	0.324403	0.054488	0.246558
	C749	C	0.289891	0.073867	0.171639
	C750	C	0.781792	0.283433	0.064332
	C751	C	0.785399	0.262414	0.064482
	C752	C	0.812480	0.259255	0.083365
	C753	C	0.835396	0.276728	0.102673
	C754	C	0.831683	0.298275	0.101746
	C755	C	0.804921	0.301671	0.082291
	C756	C	0.756737	0.245306	0.045858
	C757	C	0.751078	0.281517	0.043801
	N758	N	0.737004	0.257813	0.034346
	O759	O	0.739457	0.296080	0.037060
	O760	O	0.750564	0.224580	0.041982
	C761	C	0.861319	0.267854	0.121590
	C762	C	0.823104	0.238965	0.088520
	N763	N	0.852540	0.244491	0.113311
	O764	O	0.810513	0.221947	0.073743
	O765	O	0.885281	0.277793	0.140068
	C766	C	0.806808	0.325057	0.087817
	C767	C	0.851845	0.319611	0.120504
	N768	N	0.835511	0.335100	0.110829
	O769	O	0.876785	0.323870	0.139954
	O770	O	0.788617	0.334361	0.076287
	C771	C	0.167767	0.369648	0.258724
	C772	C	0.187207	0.369430	0.250769
	C773	C	0.213639	0.388337	0.257845
	C774	C	0.220725	0.406479	0.274343
	C775	C	0.200251	0.408120	0.278891
	C776	C	0.173919	0.389874	0.271057
	C777	C	0.173530	0.348012	0.232759
	C778	C	0.141333	0.348111	0.247123
	N779	N	0.145975	0.335897	0.231478
	O780	O	0.120039	0.341200	0.250663
	O781	O	0.183081	0.341702	0.221239
	C782	C	0.249448	0.425204	0.276026
	C783	C	0.236739	0.396348	0.245228
	N784	N	0.257482	0.419034	0.256060
	O785	O	0.237691	0.387545	0.226397
	O786	O	0.263606	0.442361	0.290734
	C787	C	0.155479	0.399162	0.272263
	C788	C	0.199733	0.429256	0.286431
	N789	N	0.171794	0.424227	0.278586
	O790	O	0.218351	0.447705	0.296361
	O791	O	0.131599	0.388962	0.268089
	C792	C	0.594216	0.727830	0.201559
	C793	C	0.603753	0.749097	0.213615
	C794	C	0.586507	0.752441	0.222321
	C795	C	0.561098	0.732957	0.222965
	C796	C	0.551931	0.710886	0.212371
	C797	C	0.568010	0.708850	0.200320
	C798	C	0.632621	0.765311	0.213595
	C799	C	0.614783	0.732606	0.186733
	N800	N	0.637691	0.755087	0.195393
	O801	O	0.612598	0.721481	0.168227
	O802	O	0.649086	0.782824	0.227236
	C803	C	0.547027	0.742277	0.231964
	C804	C	0.588887	0.775744	0.228565
	N805	N	0.563749	0.769316	0.231521
	O806	O	0.607400	0.796600	0.229925
	O807	O	0.525927	0.730608	0.238500
	C808	C	0.552031	0.684542	0.187793
	C809	C	0.525512	0.687671	0.209147
	N810	N	0.526450	0.673030	0.193052
	O811	O	0.506680	0.681655	0.218024
	O812	O	0.558616	0.675917	0.175370
	C813	C	0.730848	0.569970	0.084703
	C814	C	0.752764	0.590575	0.097835
	C815	C	0.747790	0.608455	0.102784
	C816	C	0.721114	0.604853	0.096259
	C817	C	0.699136	0.583621	0.083995
	C818	C	0.703971	0.566362	0.078027
	C819	C	0.779356	0.587063	0.107907
	C820	C	0.742230	0.554500	0.081541
	N821	N	0.771656	0.564728	0.098062
	O822	O	0.730192	0.537539	0.066759
	O823	O	0.803038	0.599469	0.122140
	C824	C	0.722191	0.626722	0.104182
	C825	C	0.767024	0.632170	0.116313
	N826	N	0.750285	0.642786	0.115355
	O827	O	0.791726	0.641434	0.126375
	O828	O	0.704022	0.630988	0.102362
	C829	C	0.677290	0.544660	0.067705
	C830	C	0.669501	0.572575	0.079990
	N831	N	0.657728	0.548578	0.071574
	O832	O	0.657353	0.580835	0.084327
	O833	O	0.672370	0.526554	0.058932
	C834	C	0.270214	0.823597	0.229213
	C835	C	0.246444	0.801733	0.233887
	C836	C	0.243154	0.775618	0.237597
	C837	C	0.263385	0.772214	0.235475
	C838	C	0.286636	0.794764	0.228654
	C839	C	0.290290	0.820237	0.226187
	C840	C	0.228658	0.812218	0.234538
	C841	C	0.268348	0.848772	0.226097
	N842	N	0.242771	0.840919	0.228752
	O843	O	0.284575	0.871626	0.222159
	O844	O	0.206883	0.800016	0.239039
	C845	C	0.254955	0.742618	0.240517
	C846	C	0.221000	0.747732	0.244688
	N847	N	0.229351	0.728849	0.245924
	O848	O	0.200287	0.741216	0.249396
	O849	O	0.267088	0.731626	0.240830
	C850	C	0.317663	0.839578	0.221473
	C851	C	0.310723	0.797302	0.223463
	N852	N	0.329171	0.824240	0.220967
	O853	O	0.314306	0.781222	0.219758
	O854	O	0.328717	0.863365	0.218362
	C855	C	0.419944	0.225959	0.073135
	C856	C	0.400869	0.215870	0.090994
	C857	C	0.384616	0.187445	0.101920
	C858	C	0.388526	0.169069	0.096771
	C859	C	0.408835	0.178914	0.080708
	C860	C	0.424300	0.207261	0.069018
	C861	C	0.405101	0.238761	0.100015
	C862	C	0.434444	0.256741	0.064614
	N863	N	0.425921	0.262647	0.084156
	O864	O	0.450108	0.273684	0.045144
	O865	O	0.394852	0.237470	0.119528
	C866	C	0.368551	0.140254	0.111737
	C867	C	0.362628	0.170793	0.121497
	N868	N	0.353709	0.142604	0.126515
	O869	O	0.353737	0.178914	0.131408
	O870	O	0.364754	0.118856	0.111535
	C871	C	0.445870	0.211673	0.056764
	C872	C	0.420436	0.164029	0.076414
	N873	N	0.443493	0.184786	0.063638
	O874	O	0.413150	0.139819	0.082313
	O875	O	0.462964	0.233120	0.044345
	F876	F	0.833276	0.324242	0.187069
	C877	C	0.843544	0.351318	0.160239
	C878	C	0.851614	0.373535	0.169527
	F879	F	0.848597	0.367851	0.204684
	C880	C	0.862834	0.401949	0.142479
	C881	C	0.865161	0.407755	0.105051
	F882	F	0.875804	0.434761	0.078665
	C883	C	0.856441	0.385656	0.095072
	F884	F	0.858338	0.391670	0.058671
	C885	C	0.845639	0.357156	0.122541
	F886	F	0.691418	0.268412	-0.052310
	C887	C	0.686402	0.250428	-0.013886
	C888	C	0.658939	0.238315	-0.017039
	F889	F	0.637799	0.245421	-0.058472
	C890	C	0.653330	0.218764	0.022856
	C891	C	0.675800	0.212855	0.065841
	F892	F	0.670879	0.194941	0.104422
	C893	C	0.703118	0.225150	0.068968
	F894	F	0.724290	0.218874	0.110509
	C895	C	0.708831	0.244063	0.029203
	F896	F	0.297103	0.510034	0.153055
	C897	C	0.298381	0.482536	0.185571
	C898	C	0.279182	0.465833	0.206216
	F899	F	0.259908	0.477614	0.193175
	C900	C	0.279269	0.436778	0.239600
	C901	C	0.300256	0.425475	0.253546
	F902	F	0.301688	0.398150	0.286817
	C903	C	0.319399	0.442125	0.232789
	F904	F	0.338506	0.430071	0.246061
	C905	C	0.318753	0.470950	0.198219
	F906	F	0.141839	0.465186	0.192135
	C907	C	0.148140	0.464329	0.230655
	C908	C	0.141314	0.484711	0.227378
	F909	F	0.128535	0.504807	0.185927
	C910	C	0.147475	0.484358	0.266947
	C911	C	0.159177	0.461932	0.309833
	F912	F	0.163853	0.459681	0.348515
	C913	C	0.165843	0.441570	0.313002
	F914	F	0.176462	0.420069	0.354210
	C915	C	0.161556	0.443077	0.273759
	F916	F	0.477478	0.686862	0.115274
	C917	C	0.479418	0.659156	0.141718
	C918	C	0.456892	0.638101	0.130351
	F919	F	0.433472	0.645637	0.093238
	C920	C	0.458584	0.609089	0.157165
	C921	C	0.483464	0.601764	0.195496
	F922	F	0.486049	0.574362	0.220342
	C923	C	0.505682	0.622661	0.207622
	F924	F	0.528985	0.615024	0.244999
	C925	C	0.504015	0.651688	0.180756
	F926	F	0.583367	0.790534	0.291513
	C927	C	0.561836	0.799342	0.251276
	C928	C	0.548874	0.817766	0.240760
	F929	F	0.558019	0.826241	0.271299
	C930	C	0.526580	0.827783	0.198443
	C931	C	0.518487	0.820051	0.165997
	F932	F	0.498628	0.831176	0.124121
	C933	C	0.531247	0.801306	0.176854
	F934	F	0.523359	0.794074	0.145532
	C935	C	0.552571	0.790014	0.220175
	F936	F	0.667868	0.499309	0.154939
	C937	C	0.641281	0.501382	0.126623
	C938	C	0.620013	0.479179	0.140530
	F939	F	0.626171	0.455796	0.181806
	C940	C	0.592200	0.481310	0.112034
	C941	C	0.586151	0.505890	0.068789
	F942	F	0.559696	0.508613	0.041615
	C943	C	0.607428	0.527736	0.054241
	F944	F	0.601323	0.550785	0.012538
	C945	C	0.635298	0.525966	0.083412
	F946	F	0.808849	0.590667	0.056918
	C947	C	0.809290	0.563791	0.092056
	C948	C	0.828256	0.549491	0.107711
	F949	F	0.846880	0.563189	0.088985
	C950	C	0.828143	0.520896	0.143122
	C951	C	0.809629	0.507441	0.164146
	F952	F	0.809950	0.480437	0.198895
	C953	C	0.791316	0.522068	0.149553
	F954	F	0.774293	0.509226	0.170902
	C955	C	0.790598	0.550254	0.112791
	F956	F	0.334705	0.864499	0.137521
	C957	C	0.357218	0.854788	0.174903
	C958	C	0.382404	0.864702	0.170984
	F959	F	0.384015	0.884361	0.129838
	C960	C	0.406082	0.854404	0.209608
	C961	C	0.403972	0.834346	0.252392
	F962	F	0.426612	0.825056	0.289936
	C963	C	0.378681	0.824200	0.256220
	F964	F	0.376994	0.804580	0.297316
	C965	C	0.354987	0.834411	0.217529
	F966	F	0.245874	0.680627	0.330201
	C967	C	0.224195	0.676406	0.294381
	C968	C	0.211146	0.648348	0.299818
	F969	F	0.220279	0.625770	0.340762
	C970	C	0.188217	0.643395	0.263031
	C971	C	0.179156	0.667316	0.220388
	F972	F	0.157635	0.663074	0.184504
	C973	C	0.192009	0.695353	0.215076
	F974	F	0.182151	0.717710	0.174451
	C975	C	0.214895	0.700331	0.251896
	F976	F	0.491763	0.170467	0.142960
	C977	C	0.489836	0.175112	0.104396
	C978	C	0.512785	0.175424	0.103573
	F979	F	0.537002	0.172687	0.140401
	C980	C	0.510639	0.178093	0.064820
	C981	C	0.485325	0.181861	0.026250
	F982	F	0.483021	0.185141	-0.011598
	C983	C	0.462479	0.181777	0.027050
	F984	F	0.437998	0.183503	-0.008978
	C985	C	0.464680	0.179480	0.065495
	F986	F	0.400917	0.304133	0.052992
	C987	C	0.427694	0.304843	0.082416
	C988	C	0.442118	0.325198	0.098371
	F989	F	0.428797	0.343530	0.084485
	C990	C	0.470262	0.326657	0.128850
	C991	C	0.483460	0.306982	0.143140
	F992	F	0.510132	0.307327	0.173066
	C993	C	0.469190	0.287023	0.126545
	F994	F	0.482909	0.269382	0.139532
	C995	C	0.440884	0.285093	0.096878
	C996	C	0.899047	0.452237	0.191918
	C997	C	0.872220	0.457086	0.166457
	C998	C	0.866170	0.476087	0.167674
	C999	C	0.886881	0.489620	0.194940
	C1000	C	0.913755	0.484403	0.221059
	C1001	C	0.919856	0.465863	0.219480
	C1002	C	0.854546	0.439526	0.140876
	C1003	C	0.899438	0.431110	0.184134
	N1004	N	0.871987	0.423965	0.153701
	O1005	O	0.918321	0.421372	0.199248
	O1006	O	0.830502	0.437918	0.114556
	C1007	C	0.874436	0.507719	0.191003
	C1008	C	0.840069	0.486600	0.142880
	N1009	N	0.846641	0.505901	0.157998
	O1010	O	0.817672	0.480843	0.115478
	O1011	O	0.884530	0.520690	0.211961
	C1012	C	0.950483	0.466178	0.248134
	C1013	C	0.940147	0.497173	0.250785
	N1014	N	0.961547	0.485448	0.265969
	O1015	O	0.943416	0.514288	0.260119
	O1016	O	0.964197	0.453750	0.254753
	C1017	C	0.551383	0.145883	0.070177
	C1018	C	0.565969	0.174533	0.053219
	C1019	C	0.587562	0.181675	0.041709
	C1020	C	0.593152	0.160312	0.045511
	C1021	C	0.578312	0.131583	0.062423
	C1022	C	0.557668	0.124381	0.075195
	C1023	C	0.553340	0.192095	0.050572
	C1024	C	0.530194	0.143744	0.080894
	N1025	N	0.531490	0.172124	0.066980
	O1026	O	0.514483	0.122828	0.098086
	O1027	O	0.559112	0.217560	0.037443
	C1028	C	0.617472	0.173274	0.032704
	C1029	C	0.608377	0.209440	0.025653
	N1030	N	0.626144	0.202705	0.021903
	O1031	O	0.610968	0.232989	0.018111
	O1032	O	0.628710	0.161652	0.032494
	C1033	C	0.546085	0.092255	0.093683
	C1034	C	0.579274	0.104657	0.068908
	N1035	N	0.559685	0.081727	0.088506
	O1036	O	0.592540	0.101790	0.058784
	O1037	O	0.528861	0.077032	0.110124
	C1038	C	0.406722	0.526205	0.120681
	C1039	C	0.384759	0.502744	0.129616
	C1040	C	0.368392	0.502027	0.144728
	C1041	C	0.375290	0.523908	0.153789
	C1042	C	0.398493	0.546967	0.147073
	C1043	C	0.413602	0.548395	0.129456
	C1044	C	0.385597	0.480138	0.125504
	C1045	C	0.421669	0.519924	0.108738
	N1046	N	0.409387	0.490954	0.115894
	O1047	O	0.440657	0.534803	0.096266
	O1048	O	0.370439	0.456730	0.130464
	C1049	C	0.356665	0.514886	0.175753
	C1050	C	0.344034	0.479455	0.157333
	N1051	N	0.338276	0.487948	0.177051
	O1052	O	0.331439	0.458147	0.152275
	O1053	O	0.357306	0.526762	0.191667
	C1054	C	0.437337	0.574631	0.126539
	C1055	C	0.412856	0.572060	0.157575
	N1056	N	0.436302	0.587535	0.145161
	O1057	O	0.406956	0.578251	0.174268
	O1058	O	0.454602	0.583734	0.112216
	C1059	C	0.138174	0.572297	0.284970
	C1060	C	0.152951	0.569262	0.271824
	C1061	C	0.145327	0.543759	0.270005
	C1062	C	0.122754	0.522146	0.280578
	C1063	C	0.108110	0.525322	0.294032
	C1064	C	0.115654	0.550365	0.295978
	C1065	C	0.175388	0.596660	0.261828
	C1066	C	0.150948	0.600800	0.285386
	N1067	N	0.172700	0.614894	0.269980
	O1068	O	0.145197	0.610634	0.297148
	O1069	O	0.192811	0.603017	0.249825
	C1070	C	0.119418	0.497183	0.277187
	C1071	C	0.156711	0.533480	0.257873
	N1072	N	0.140825	0.504818	0.264640
	O1073	O	0.175074	0.545810	0.244394
	O1074	O	0.102691	0.474447	0.283921
	C1075	C	0.095799	0.548152	0.309753
	C1076	C	0.082376	0.506732	0.304322
	N1077	N	0.075643	0.521796	0.312625
	O1078	O	0.068780	0.483836	0.304560
	O1079	O	0.095971	0.564790	0.316925
	C1080	C	0.489579	0.918500	0.167121
	C1081	C	0.508343	0.914410	0.162866
	C1082	C	0.506721	0.886792	0.173974
	C1083	C	0.486092	0.863490	0.188555
	C1084	C	0.467436	0.867536	0.193651
	C1085	C	0.469497	0.894879	0.183598
	C1086	C	0.527632	0.943179	0.145412
	C1087	C	0.496043	0.950104	0.152257
	N1088	N	0.519236	0.963681	0.140000
	O1089	O	0.484339	0.962715	0.149590
	O1090	O	0.546482	0.949089	0.136692
	C1091	C	0.490024	0.836932	0.198369
	C1092	C	0.523864	0.876371	0.172303
	N1093	N	0.513351	0.846129	0.188552
	O1094	O	0.542791	0.889722	0.159810
	O1095	O	0.477048	0.812350	0.212014
	C1096	C	0.447504	0.892834	0.192819
	C1097	C	0.442661	0.847392	0.206638
	N1098	N	0.431431	0.864024	0.205091
	O1099	O	0.433002	0.822258	0.216323
	O1100	O	0.443899	0.910744	0.192608
	C1101	C	0.536106	0.434220	0.156589
	C1102	C	0.536535	0.416722	0.145629
	C1103	C	0.516476	0.390669	0.149210
	C1104	C	0.496319	0.382311	0.163900
	C1105	C	0.495525	0.400324	0.173797
	C1106	C	0.515136	0.426273	0.169771
	C1107	C	0.558667	0.432614	0.126608
	C1108	C	0.558616	0.461280	0.146868
	N1109	N	0.570952	0.459338	0.127852
	O1110	O	0.565702	0.481317	0.153025
	O1111	O	0.565116	0.425383	0.112000
	C1112	C	0.477514	0.354068	0.163697
	C1113	C	0.509223	0.369797	0.133900
	N1114	N	0.485473	0.348340	0.143165
	O1115	O	0.519827	0.370973	0.114999
	O1116	O	0.459376	0.338612	0.178150
	C1117	C	0.506935	0.442440	0.176673
	C1118	C	0.473475	0.399594	0.181303
	N1119	N	0.480580	0.426244	0.180070
	O1120	O	0.452988	0.381103	0.186365
	O1121	O	0.518765	0.464814	0.178565
	F1122	F	-0.015216	0.541225	0.214154
	C1123	C	0.001754	0.524398	0.254657
	C1124	C	0.030340	0.533612	0.266395
	F1125	F	0.040581	0.559253	0.237016
	C1126	C	0.048300	0.515828	0.307765
	C1127	C	0.037396	0.490387	0.339729
	F1128	F	0.054577	0.474619	0.381398
	C1129	C	0.008665	0.481035	0.327779
	F1130	F	-0.001670	0.456243	0.357906
	C1131	C	-0.009505	0.497128	0.283869
	F1132	F	0.564778	-0.016880	0.202952
	C1133	C	0.554108	0.002579	0.158912
	C1134	C	0.564177	0.031935	0.146146
	F1135	F	0.584199	0.040698	0.177970
	C1136	C	0.553205	0.052479	0.100136
	C1137	C	0.533745	0.043229	0.066586
	F1138	F	0.524950	0.062887	0.022057
	C1139	C	0.523382	0.013844	0.079461
	F1140	F	0.504442	0.005099	0.047339
	C1141	C	0.532497	-0.006742	0.126038
	F1142	F	0.452329	0.476319	0.201743
	C1143	C	0.447461	0.466011	0.176228
	C1144	C	0.464485	0.449094	0.193331
	F1145	F	0.484656	0.442252	0.235743
	C1146	C	0.460800	0.439470	0.166311
	C1147	C	0.438426	0.445614	0.123025
	F1148	F	0.433755	0.435741	0.097087
	C1149	C	0.421074	0.462125	0.106247
	F1150	F	0.400169	0.468009	0.064627
	C1151	C	0.425630	0.472911	0.132386
	C1152	C	0.021086	0.027387	0.353919
	C1153	C	-0.004190	0.014133	0.358899
	C1154	C	-0.017914	-0.013903	0.363293
	C1155	C	-0.006153	-0.028408	0.362876
	C1156	C	0.019451	-0.015087	0.358072
	C1157	C	0.033002	0.012656	0.353611
	C1158	C	-0.011345	0.034646	0.359085
	C1159	C	0.030002	0.057582	0.347615
	N1160	N	0.009343	0.060831	0.350208
	O1161	O	0.050122	0.076312	0.341290
	O1162	O	-0.029948	0.030684	0.366611
	C1163	C	-0.026140	-0.056950	0.365320
	C1164	C	-0.045241	-0.033313	0.368234
	N1165	N	-0.049402	-0.058579	0.368083
	O1166	O	-0.061159	-0.029152	0.371628
	O1167	O	-0.024295	-0.075233	0.364004
	C1168	C	0.059971	0.020883	0.350074
	C1169	C	0.037171	-0.025538	0.357371
	N1170	N	0.061457	-0.003124	0.353175
	O1171	O	0.032860	-0.047948	0.359477
	O1172	O	0.077667	0.042870	0.345718
	F1173	F	-0.010548	0.155382	0.259020
	C1174	C	-0.000355	0.133620	0.300443
	C1175	C	-0.001399	0.108830	0.303544
	F1176	F	-0.013406	0.106820	0.265022
	C1177	C	0.009953	0.086120	0.346333
	C1178	C	0.021979	0.088917	0.385804
	F1179	F	0.033255	0.067653	0.426943
	C1180	C	0.022107	0.113214	0.382854
	F1181	F	0.032898	0.114756	0.421422
	C1182	C	0.010908	0.135995	0.340052
	F1183	F	0.896472	0.844582	0.431231
	C1184	C	0.898407	0.870808	0.395110
	C1185	C	0.922549	0.892348	0.401057
	F1186	F	0.943361	0.886467	0.442834
	C1187	C	0.925417	0.919897	0.363814
	C1188	C	0.902960	0.925505	0.320842
	F1189	F	0.904944	0.951797	0.284760
	C1190	C	0.878779	0.904076	0.314977
	F1191	F	0.857747	0.910037	0.273337
	C1192	C	0.876239	0.876251	0.351846
	F1193	F	0.155901	-0.013649	0.429631
	C1194	C	0.132103	-0.009533	0.391909
	C1195	C	0.109043	-0.009927	0.392620
	F1196	F	0.110668	-0.015275	0.431505
	C1197	C	0.084158	-0.004747	0.353226
	C1198	C	0.082362	-0.001226	0.314004
	F1199	F	0.058431	0.002411	0.276518
	C1200	C	0.105155	-0.001683	0.313753
	F1201	F	0.102955	0.001096	0.276358
	C1202	C	0.130563	-0.005088	0.352199
	C1203	C	0.036796	0.218227	0.368578
	C1204	C	0.021513	0.229501	0.368381
	C1205	C	-0.007672	0.220519	0.352307
	C1206	C	-0.021480	0.200124	0.336767
	C1207	C	-0.006039	0.188310	0.337692
	C1208	C	0.022931	0.197108	0.353823
	C1209	C	0.041529	0.250598	0.387401
	C1210	C	0.067147	0.233279	0.385018
	N1211	N	0.068534	0.252691	0.395402
	O1212	O	0.086988	0.230793	0.388400
	O1213	O	0.036681	0.263563	0.395247
	C1214	C	-0.052474	0.195624	0.320399
	C1215	C	-0.029037	0.228576	0.348963
	N1216	N	-0.055619	0.213615	0.328290
	O1217	O	-0.025640	0.243787	0.361920
	O1218	O	-0.071700	0.180400	0.303661
	C1219	C	0.033510	0.180218	0.351750
	C1220	C	-0.014844	0.164610	0.326850
	N1221	N	0.009883	0.160034	0.337374
	O1222	O	-0.037789	0.151043	0.312609
	O1223	O	0.056795	0.182170	0.359970
	C1224	C	0.776173	0.818361	0.312415
	C1225	C	0.761814	0.799050	0.294787
	C1226	C	0.776502	0.787763	0.293388
	C1227	C	0.805221	0.797048	0.306698
	C1228	C	0.819314	0.819372	0.319015
	C1229	C	0.804997	0.829476	0.322859
	C1230	C	0.731448	0.791379	0.284925
	C1231	C	0.755734	0.821091	0.319407
	N1232	N	0.729179	0.803834	0.302930
	O1233	O	0.760087	0.833269	0.338082
	O1234	O	0.712111	0.777689	0.265293
	C1235	C	0.814619	0.778831	0.305006
	C1236	C	0.766797	0.762504	0.285808
	N1237	N	0.790516	0.757307	0.294672
	O1238	O	0.743608	0.748046	0.275497
	O1239	O	0.837226	0.780629	0.310879
	C1240	C	0.825740	0.851463	0.339989
	C1241	C	0.849590	0.834889	0.333032
	N1242	N	0.852069	0.854348	0.344338
	O1243	O	0.868746	0.832682	0.334160
	O1244	O	0.821786	0.864886	0.348185
	C1245	C	0.195742	-0.029811	0.344512
	C1246	C	0.216653	-0.013263	0.327687
	C1247	C	0.225531	0.016562	0.313085
	C1248	C	0.213251	0.029921	0.314711
	C1249	C	0.190944	0.013541	0.329123
	C1250	C	0.182520	-0.016216	0.344537
	C1251	C	0.226532	-0.032919	0.330363
	C1252	C	0.192340	-0.061109	0.360521
	N1253	N	0.212018	-0.061477	0.352037
	O1254	O	0.176853	-0.082428	0.377548
	O1255	O	0.242645	-0.027030	0.316115
	C1256	C	0.228074	0.061549	0.298666
	C1257	C	0.248720	0.038692	0.296910
	N1258	N	0.249448	0.065269	0.289153
	O1259	O	0.264496	0.035429	0.291915
	O1260	O	0.224006	0.080648	0.294860
	C1261	C	0.158538	-0.027916	0.357790
	C1262	C	0.173244	0.021672	0.333639
	N1263	N	0.153791	-0.004088	0.350175
	O1264	O	0.174230	0.044755	0.325717
	O1265	O	0.145031	-0.052208	0.371841
	F1266	F	0.908783	0.242427	0.236918
	C1267	C	0.902334	0.233506	0.270740
	C1268	C	0.879670	0.240788	0.260283
	F1269	F	0.864075	0.256359	0.216362
	C1270	C	0.873013	0.231999	0.295448
	C1271	C	0.887706	0.213220	0.340647
	F1272	F	0.879991	0.202403	0.374165
	C1273	C	0.910375	0.206022	0.351067
	F1274	F	0.924632	0.188610	0.394580
	C1275	C	0.918806	0.217189	0.316536
	F1276	F	0.113434	0.238639	0.482358
	C1277	C	0.113892	0.266462	0.450618
	C1278	C	0.135793	0.287919	0.461849
	F1279	F	0.155734	0.280595	0.504551
	C1280	C	0.137237	0.317155	0.428913
	C1281	C	0.116093	0.324357	0.384538
	F1282	F	0.117175	0.352215	0.352601
	C1283	C	0.094082	0.302978	0.373451
	F1284	F	0.074236	0.310404	0.330634
	C1285	C	0.092353	0.273747	0.406557
	F1286	F	0.711875	0.746039	0.357769
	C1287	C	0.698265	0.764590	0.342461
	C1288	C	0.676684	0.754168	0.355719
	F1289	F	0.670597	0.725989	0.384479
	C1290	C	0.661502	0.772683	0.339658
	C1291	C	0.668787	0.802039	0.309825
	F1292	F	0.654759	0.820448	0.293713
	C1293	C	0.690671	0.812525	0.296952
	F1294	F	0.697212	0.840679	0.268635
	C1295	C	0.706065	0.794008	0.313623
	F1296	F	0.772212	0.754054	0.216627
	C1297	C	0.777216	0.730154	0.257257
	C1298	C	0.769806	0.703744	0.258785
	F1299	F	0.756496	0.702425	0.219344
	C1300	C	0.775972	0.678634	0.300887
	C1301	C	0.790236	0.681086	0.341301
	F1302	F	0.797604	0.657738	0.381918
	C1303	C	0.796480	0.707268	0.339727
	F1304	F	0.809239	0.708703	0.378974
	C1305	C	0.789295	0.732096	0.297485
	F1306	F	0.254896	0.917016	0.436802
	C1307	C	0.242558	0.904471	0.410267
	C1308	C	0.252854	0.882770	0.423919
	F1309	F	0.274897	0.874343	0.463609
	C1310	C	0.240433	0.869575	0.396494
	C1311	C	0.216127	0.877116	0.356805
	F1312	F	0.202539	0.863023	0.332190
	C1313	C	0.206129	0.899255	0.342607
	F1314	F	0.183589	0.907091	0.303594
	C1315	C	0.219670	0.913722	0.368568
	F1316	F	0.243236	0.110961	0.199392
	C1317	C	0.268058	0.111885	0.234151
	C1318	C	0.290833	0.134113	0.224967
	F1319	F	0.287788	0.154264	0.181383
	C1320	C	0.316997	0.135604	0.260822
	C1321	C	0.319382	0.115144	0.306256
	F1322	F	0.343857	0.116969	0.341138
	C1323	C	0.296664	0.092889	0.315418
	F1324	F	0.299372	0.073493	0.359121
	C1325	C	0.270974	0.090328	0.279430
	C1326	C	0.784780	0.262136	0.282737
	C1327	C	0.788442	0.243052	0.278753
	C1328	C	0.814330	0.246869	0.281488
	C1329	C	0.835872	0.270167	0.286933
	C1330	C	0.831735	0.290019	0.289164
	C1331	C	0.806502	0.285513	0.288339
	C1332	C	0.761415	0.220683	0.272678
	C1333	C	0.755392	0.253226	0.278327
	N1334	N	0.742392	0.228154	0.272516
	O1335	O	0.744029	0.264682	0.278584
	O1336	O	0.755615	0.200449	0.267924
	C1337	C	0.860916	0.268748	0.289089
	C1338	C	0.825122	0.229353	0.280963
	N1339	N	0.853474	0.243331	0.286681
	O1340	O	0.813325	0.207884	0.276472
	O1341	O	0.883373	0.285129	0.292250
	C1342	C	0.808373	0.308807	0.294061
	C1343	C	0.850566	0.316944	0.294381
	N1344	N	0.834967	0.327611	0.295905
	O1345	O	0.874080	0.328412	0.296731
	O1346	O	0.791959	0.311598	0.298397
	C1347	C	0.184518	0.381063	0.449332
	C1348	C	0.199852	0.376880	0.438501
	C1349	C	0.224333	0.397181	0.432385
	C1350	C	0.233708	0.420779	0.439066
	C1351	C	0.217495	0.425924	0.446993
	C1352	C	0.192792	0.406543	0.451652
	C1353	C	0.184210	0.350397	0.431587
	C1354	C	0.158543	0.357092	0.449837
	N1355	N	0.159631	0.339305	0.439136
	O1356	O	0.139566	0.352741	0.456888
	O1357	O	0.189922	0.340087	0.420533
	C1358	C	0.259553	0.439477	0.429544
	C1359	C	0.242866	0.401418	0.414128
	N1360	N	0.263537	0.427459	0.412990
	O1361	O	0.240706	0.387311	0.400397
	O1362	O	0.274425	0.460726	0.434406
	C1363	C	0.179878	0.419789	0.456607
	C1364	C	0.221167	0.451923	0.447827
	N1365	N	0.197317	0.448023	0.451068
	O1366	O	0.240109	0.472897	0.445725
	O1367	O	0.159425	0.409948	0.464090
	C1368	C	0.598098	0.731599	0.366940
	C1369	C	0.608312	0.752672	0.379766
	C1370	C	0.592388	0.754697	0.392596
	C1371	C	0.567963	0.734087	0.396666
	C1372	C	0.558132	0.712400	0.384970
	C1373	C	0.572655	0.711698	0.368747
	C1374	C	0.635602	0.770764	0.373883
	C1375	C	0.616530	0.737804	0.346977
	N1376	N	0.639017	0.761307	0.352634
	O1377	O	0.612987	0.726704	0.327286
	O1378	O	0.652129	0.789276	0.385233
	C1379	C	0.554726	0.742296	0.408611
	C1380	C	0.594560	0.777881	0.398932
	N1381	N	0.570311	0.770081	0.405536
	O1382	O	0.612203	0.799637	0.397638
	O1383	O	0.534784	0.729508	0.418569
	C1384	C	0.555806	0.687932	0.354989
	C1385	C	0.531932	0.688839	0.383341
	N1386	N	0.531514	0.675217	0.364289
	O1387	O	0.514068	0.682032	0.394899
	O1388	O	0.560704	0.680639	0.338518
	C1389	C	0.747017	0.572066	0.285020
	C1390	C	0.768131	0.595921	0.288782
	C1391	C	0.764129	0.614570	0.293770
	C1392	C	0.739640	0.608356	0.296946
	C1393	C	0.718269	0.584156	0.292967
	C1394	C	0.721945	0.566527	0.286217
	C1395	C	0.792560	0.595051	0.288200
	C1396	C	0.756287	0.556057	0.279456
	N1397	N	0.784018	0.570397	0.282740
	O1398	O	0.743785	0.535222	0.273127
	O1399	O	0.815245	0.610928	0.291930
	C1400	C	0.741815	0.631449	0.303613
	C1401	C	0.782486	0.642113	0.297408
	N1402	N	0.767584	0.651657	0.302032
	O1403	O	0.805231	0.654761	0.296419
	O1404	O	0.726049	0.633183	0.310612
	C1405	C	0.696504	0.542304	0.283566
	C1406	C	0.690198	0.570955	0.296379
	N1407	N	0.678251	0.545787	0.290462
	O1408	O	0.679355	0.579165	0.303027
	O1409	O	0.691369	0.523337	0.276415
	C1410	C	0.282712	0.831832	0.414452
	C1411	C	0.264343	0.808311	0.434724
	C1412	C	0.265386	0.780024	0.452797
	C1413	C	0.285248	0.775559	0.451486
	C1414	C	0.303559	0.799191	0.430751
	C1415	C	0.302262	0.827282	0.411928
	C1416	C	0.246211	0.819610	0.432990
	C1417	C	0.275548	0.859047	0.396052
	N1418	N	0.253194	0.850224	0.407788
	O1419	O	0.285732	0.883891	0.375288
	O1420	O	0.229665	0.806574	0.450418
	C1421	C	0.280809	0.743616	0.471031
	C1422	C	0.247409	0.750876	0.473278
	N1423	N	0.257566	0.729878	0.483061
	O1424	O	0.227640	0.745302	0.479602
	O1425	O	0.293193	0.730962	0.475178
	C1426	C	0.324324	0.847680	0.392145
	C1427	C	0.326177	0.800416	0.423823
	N1428	N	0.337972	0.830080	0.400576
	O1429	O	0.333719	0.781070	0.434541
	O1430	O	0.330274	0.873636	0.372828
	C1431	C	0.421227	0.230212	0.233865
	C1432	C	0.399433	0.222058	0.244937
	C1433	C	0.378913	0.196636	0.245110
	C1434	C	0.381093	0.179220	0.235929
	C1435	C	0.404139	0.186652	0.227596
	C1436	C	0.424016	0.212047	0.226652
	C1437	C	0.405829	0.242394	0.260827
	C1438	C	0.439562	0.258276	0.234875
	N1439	N	0.430215	0.263882	0.253617
	O1440	O	0.458354	0.273768	0.221933
	O1441	O	0.394491	0.240682	0.279160
	C1442	C	0.356682	0.153523	0.239285
	C1443	C	0.353556	0.182006	0.256420
	N1444	N	0.340841	0.156454	0.251611
	O1445	O	0.344909	0.189301	0.267876
	O1446	O	0.350582	0.133674	0.233354
	C1447	C	0.447714	0.213219	0.222383
	C1448	C	0.414469	0.170819	0.223155
	N1449	N	0.441598	0.187118	0.222969
	O1450	O	0.403458	0.148942	0.219947
	O1451	O	0.468684	0.231657	0.220067
	F1452	F	0.873018	0.330686	0.377351
	C1453	C	0.863567	0.354366	0.339984
	C1454	C	0.872703	0.379550	0.342839
	F1455	F	0.891505	0.379958	0.382902
	C1456	C	0.862502	0.404368	0.304347
	C1457	C	0.843283	0.403345	0.262783
	F1458	F	0.833745	0.426949	0.225279
	C1459	C	0.834174	0.378158	0.259918
	F1460	F	0.815644	0.377729	0.219794
	C1461	C	0.844272	0.353339	0.298474
	F1462	F	0.699684	0.247410	0.186098
	C1463	C	0.692920	0.224345	0.221750
	C1464	C	0.664978	0.211202	0.215012
	F1465	F	0.644960	0.221635	0.172963
	C1466	C	0.657560	0.186924	0.251819
	C1467	C	0.678777	0.176190	0.295533
	F1468	F	0.672011	0.152883	0.331030
	C1469	C	0.706722	0.189353	0.302292
	F1470	F	0.726689	0.178477	0.344152
	C1471	C	0.714133	0.213761	0.265539
	F1472	F	0.294056	0.513854	0.294208
	C1473	C	0.297202	0.487525	0.330244
	C1474	C	0.278768	0.470976	0.352053
	F1475	F	0.258355	0.482011	0.337127
	C1476	C	0.281475	0.443158	0.389530
	C1477	C	0.302696	0.432045	0.403852
	F1478	F	0.305219	0.405274	0.438646
	C1479	C	0.321232	0.448700	0.382137
	F1480	F	0.341239	0.437596	0.395915
	C1481	C	0.319319	0.477014	0.346184
	F1482	F	0.191624	0.502394	0.371247
	C1483	C	0.191121	0.497700	0.407972
	C1484	C	0.189124	0.520287	0.406521
	F1485	F	0.188291	0.546283	0.369246
	C1486	C	0.187558	0.515961	0.443518
	C1487	C	0.190546	0.489328	0.483483
	F1488	F	0.191634	0.485498	0.520844
	C1489	C	0.191804	0.466604	0.484402
	F1490	F	0.192089	0.440639	0.521338
	C1491	C	0.192472	0.470374	0.447100
	F1492	F	0.483644	0.690145	0.284862
	C1493	C	0.484885	0.662237	0.311485
	C1494	C	0.462538	0.641601	0.298851
	F1495	F	0.440078	0.649721	0.259776
	C1496	C	0.463445	0.612331	0.326623
	C1497	C	0.486899	0.604124	0.367859
	F1498	F	0.488008	0.576166	0.394946
	C1499	C	0.509217	0.624747	0.380494
	F1500	F	0.531539	0.616579	0.419851
	C1501	C	0.508662	0.654103	0.352082
	F1502	F	0.588440	0.797495	0.456660
	C1503	C	0.565684	0.802843	0.417380
	C1504	C	0.550787	0.820949	0.403135
	F1505	F	0.559481	0.832911	0.428839
	C1506	C	0.526858	0.826901	0.362086
	C1507	C	0.518565	0.814799	0.335179
	F1508	F	0.496206	0.820903	0.295262
	C1509	C	0.533468	0.796837	0.349296
	F1510	F	0.525219	0.785858	0.322461
	C1511	C	0.556971	0.790140	0.391042
	F1512	F	0.679461	0.491994	0.368342
	C1513	C	0.654659	0.497540	0.334053
	C1514	C	0.630532	0.475964	0.337524
	F1515	F	0.632292	0.450171	0.375384
	C1516	C	0.604341	0.480942	0.301997
	C1517	C	0.603040	0.508030	0.262611
	F1518	F	0.578222	0.513205	0.228061
	C1519	C	0.627187	0.529686	0.259220
	F1520	F	0.625415	0.555481	0.221398
	C1521	C	0.653350	0.524815	0.294983
	F1522	F	0.783930	0.577135	0.207267
	C1523	C	0.800445	0.561191	0.249775
	C1524	C	0.816296	0.547434	0.255798
	F1525	F	0.815185	0.550517	0.218976
	C1526	C	0.833429	0.530337	0.300037
	C1527	C	0.833792	0.526813	0.338143
	F1528	F	0.849709	0.510239	0.380838
	C1529	C	0.817936	0.540551	0.332043
	F1530	F	0.818481	0.536941	0.368795
	C1531	C	0.801269	0.558157	0.287852
	F1532	F	0.328875	0.830267	0.324294
	C1533	C	0.355028	0.838894	0.350199
	C1534	C	0.377032	0.846513	0.339802
	F1535	F	0.372080	0.845156	0.304102
	C1536	C	0.404524	0.855730	0.366203
	C1537	C	0.409579	0.856531	0.404048
	F1538	F	0.435741	0.865181	0.429874
	C1539	C	0.387617	0.848557	0.414836
	F1540	F	0.392854	0.849326	0.451276
	C1541	C	0.360060	0.839774	0.387985
	F1542	F	0.267404	0.678707	0.568415
	C1543	C	0.248223	0.676634	0.529737
	C1544	C	0.234862	0.649496	0.531383
	F1545	F	0.242225	0.625790	0.571359
	C1546	C	0.213937	0.646962	0.491453
	C1547	C	0.207408	0.672206	0.449688
	F1548	F	0.187798	0.670287	0.410945
	C1549	C	0.221140	0.699231	0.447887
	F1550	F	0.214620	0.723113	0.407546
	C1551	C	0.241944	0.701829	0.487753
	F1552	F	0.461280	0.138305	0.305217
	C1553	C	0.472144	0.152861	0.273939
	C1554	C	0.493596	0.144167	0.283652
	F1555	F	0.503003	0.121372	0.323808
	C1556	C	0.505548	0.159142	0.251824
	C1557	C	0.496591	0.183988	0.211361
	F1558	F	0.509327	0.200355	0.182162
	C1559	C	0.474282	0.191772	0.200708
	F1560	F	0.464420	0.213893	0.159802
	C1561	C	0.462007	0.176731	0.232071
	F1562	F	0.405806	0.305059	0.224827
	C1563	C	0.432621	0.305493	0.254025
	C1564	C	0.447565	0.326142	0.269465
	F1565	F	0.434478	0.344517	0.256084
	C1566	C	0.475955	0.327964	0.298707
	C1567	C	0.488556	0.307519	0.313783
	F1568	F	0.515334	0.307898	0.343175
	C1569	C	0.473575	0.286739	0.298601
	F1570	F	0.486471	0.267744	0.313295
	C1571	C	0.445335	0.285317	0.268539
	C1572	C	0.900793	0.468558	0.324380
	C1573	C	0.873798	0.467733	0.312669
	C1574	C	0.869041	0.488329	0.312449
	C1575	C	0.891405	0.509218	0.324369
	C1576	C	0.918714	0.509026	0.338502
	C1577	C	0.923323	0.488954	0.337982
	C1578	C	0.854678	0.442476	0.302790
	C1579	C	0.899737	0.445341	0.319452
	N1580	N	0.871590	0.429912	0.307381
	O1581	O	0.917982	0.440447	0.322416
	O1582	O	0.830073	0.433213	0.293556
	C1583	C	0.880494	0.528172	0.321402
	C1584	C	0.842782	0.493749	0.300278
	N1585	N	0.851124	0.517997	0.306428
	O1586	O	0.819000	0.481089	0.287524
	O1587	O	0.892971	0.548138	0.329882
	C1588	C	0.954269	0.493679	0.354873
	C1589	C	0.946510	0.528216	0.353802
	N1590	N	0.967015	0.517719	0.363343
	O1591	O	0.951777	0.548365	0.358363
	O1592	O	0.967066	0.480279	0.361524
	C1593	C	0.537884	0.127521	0.240271
	C1594	C	0.560533	0.148899	0.250274
	C1595	C	0.584909	0.155071	0.246347
	C1596	C	0.586011	0.140323	0.231362
	C1597	C	0.563356	0.118404	0.222176
	C1598	C	0.539554	0.111739	0.227333
	C1599	C	0.552355	0.162080	0.262429
	C1600	C	0.514398	0.126508	0.244999
	N1601	N	0.524076	0.148202	0.257350
	O1602	O	0.491217	0.111537	0.238778
	O1603	O	0.565815	0.180388	0.274726
	C1604	C	0.614227	0.151415	0.230057
	C1605	C	0.612307	0.176673	0.254126
	N1606	N	0.629244	0.172847	0.244835
	O1607	O	0.619590	0.194347	0.265377
	O1608	O	0.623335	0.144577	0.218614
	C1609	C	0.519443	0.086763	0.217314
	C1610	C	0.558575	0.099185	0.205699
	N1611	N	0.532388	0.079637	0.205794
	O1612	O	0.573003	0.099693	0.193566
	O1613	O	0.496967	0.074002	0.219388
	C1614	C	0.414701	0.531224	0.286573
	C1615	C	0.391447	0.508748	0.291152
	C1616	C	0.373183	0.508631	0.301960
	C1617	C	0.379578	0.529625	0.312497
	C1618	C	0.403707	0.551850	0.309686
	C1619	C	0.420455	0.553302	0.294752
	C1620	C	0.392585	0.486069	0.287809
	C1621	C	0.430802	0.524344	0.277473
	N1622	N	0.417351	0.495978	0.281578
	O1623	O	0.451202	0.538446	0.268745
	O1624	O	0.376914	0.463031	0.291326
	C1625	C	0.359258	0.520123	0.331751
	C1626	C	0.346582	0.487641	0.307376
	N1627	N	0.339794	0.494879	0.327272
	O1628	O	0.332723	0.468611	0.296571
	O1629	O	0.359322	0.529862	0.350271
	C1630	C	0.444798	0.578663	0.295721
	C1631	C	0.416966	0.576432	0.320921
	N1632	N	0.441903	0.591316	0.312719
	O1633	O	0.409045	0.582947	0.334505
	O1634	O	0.463620	0.587457	0.284814
	C1635	C	0.158751	0.588610	0.464709
	C1636	C	0.181165	0.584722	0.468601
	C1637	C	0.176527	0.565693	0.455143
	C1638	C	0.149400	0.551431	0.436920
	C1639	C	0.126939	0.555137	0.433546
	C1640	C	0.131587	0.573448	0.447839
	C1641	C	0.207077	0.605000	0.485181
	C1642	C	0.169642	0.610125	0.480997
	N1643	N	0.198668	0.620024	0.491256
	O1644	O	0.157073	0.618457	0.484511
	O1645	O	0.230560	0.609284	0.491289
	C1646	C	0.150354	0.532542	0.425731
	C1647	C	0.195962	0.556177	0.456370
	N1648	N	0.178806	0.535801	0.438922
	O1649	O	0.220886	0.563060	0.469340
	O1650	O	0.131723	0.517054	0.408910
	C1651	C	0.103835	0.573238	0.439940
	C1652	C	0.096146	0.542282	0.416399
	N1653	N	0.083373	0.554319	0.420516
	O1654	O	0.083467	0.524790	0.402504
	O1655	O	0.098632	0.585498	0.448475
	C1656	C	0.471699	0.918937	0.287121
	C1657	C	0.491185	0.914306	0.285249
	C1658	C	0.495381	0.886294	0.310189
	C1659	C	0.480040	0.863161	0.336674
	C1660	C	0.460575	0.867948	0.338997
	C1661	C	0.456608	0.895805	0.314427
	C1662	C	0.504971	0.943142	0.255375
	C1663	C	0.472879	0.950874	0.259800
	N1664	N	0.493384	0.964374	0.241766
	O1665	O	0.460186	0.963805	0.254393
	O1666	O	0.522669	0.948263	0.244877
	C1667	C	0.489965	0.836379	0.360593
	C1668	C	0.514622	0.875000	0.314470
	N1669	N	0.511469	0.845215	0.347016
	O1670	O	0.529562	0.887326	0.294354
	O1671	O	0.482281	0.811914	0.386296
	C1672	C	0.434976	0.894850	0.323168
	C1673	C	0.440974	0.847921	0.363743
	N1674	N	0.426334	0.865537	0.352959
	O1675	O	0.437266	0.822195	0.387924
	O1676	O	0.426023	0.914147	0.309350
	C1677	C	0.541035	0.435481	0.327622
	C1678	C	0.542299	0.418885	0.315979
	C1679	C	0.521895	0.393108	0.317418
	C1680	C	0.501294	0.384193	0.331683
	C1681	C	0.499639	0.401482	0.341829
	C1682	C	0.519108	0.427308	0.338859
	C1683	C	0.566739	0.434932	0.301728
	C1684	C	0.565050	0.461371	0.324062
	N1685	N	0.579695	0.460118	0.307998
	O1686	O	0.571860	0.479985	0.333217
	O1687	O	0.574531	0.428822	0.287445
	C1688	C	0.483173	0.355676	0.332417
	C1689	C	0.514848	0.372248	0.302021
	N1690	N	0.491370	0.350128	0.312114
	O1691	O	0.525146	0.373817	0.282321
	O1692	O	0.465381	0.339854	0.347660
	C1693	C	0.510305	0.442766	0.345978
	C1694	C	0.477447	0.399636	0.350374
	N1695	N	0.484145	0.425979	0.349757
	O1696	O	0.457358	0.380615	0.356217
	O1697	O	0.521485	0.465327	0.347239
	F1698	F	-0.008300	0.560252	0.300268
	C1699	C	0.008047	0.549991	0.345320
	C1700	C	0.036874	0.559144	0.359533
	F1701	F	0.048122	0.578415	0.328084
	C1702	C	0.054274	0.548029	0.406537
	C1703	C	0.042216	0.529071	0.439051
	F1704	F	0.058659	0.519431	0.484060
	C1705	C	0.013349	0.520054	0.424808
	F1706	F	0.001987	0.501866	0.456109
	C1707	C	-0.003989	0.529634	0.377830
	F1708	F	0.546430	-0.016169	0.295129
	C1709	C	0.531236	0.003217	0.256623
	C1710	C	0.540470	0.031763	0.248069
	F1711	F	0.564544	0.039511	0.278421
	C1712	C	0.524500	0.052235	0.208921
	C1713	C	0.500161	0.043943	0.176527
	F1714	F	0.485122	0.063364	0.137887
	C1715	C	0.491184	0.015388	0.184726
	F1716	F	0.468197	0.007784	0.153254
	C1717	C	0.505693	-0.005642	0.226318
	F1718	F	0.459060	0.479900	0.368678
	C1719	C	0.453523	0.468856	0.343680
	C1720	C	0.469182	0.450292	0.361946
	F1721	F	0.489161	0.443360	0.404394
	C1722	C	0.464352	0.439086	0.336158
	C1723	C	0.441589	0.444639	0.293449
	F1724	F	0.434935	0.432128	0.269792
	C1725	C	0.425946	0.463342	0.274998
	F1726	F	0.404825	0.468976	0.233664
	C1727	C	0.432303	0.476389	0.299319
	C1728	C	0.011116	0.018980	0.503113
	C1729	C	-0.017020	0.007719	0.495391
	C1730	C	-0.031258	-0.016848	0.488619
	C1731	C	-0.017465	-0.029540	0.488488
	C1732	C	0.010763	-0.017552	0.494692
	C1733	C	0.025026	0.006346	0.502573
	C1734	C	-0.026464	0.025990	0.496542
	C1735	C	0.020574	0.045223	0.508680
	N1736	N	-0.003185	0.048825	0.502922
	O1737	O	0.043264	0.060920	0.516507
	O1738	O	-0.048745	0.023160	0.493177
	C1739	C	-0.038131	-0.055140	0.480230
	C1740	C	-0.060779	-0.034390	0.482157
	N1741	N	-0.063629	-0.057264	0.477656
	O1742	O	-0.079105	-0.031117	0.481516
	O1743	O	-0.034779	-0.071280	0.476371
	C1744	C	0.054960	0.013503	0.510336
	C1745	C	0.030971	-0.025920	0.495681
	N1746	N	0.057460	-0.007169	0.507091
	O1747	O	0.026711	-0.043803	0.487043
	O1748	O	0.073939	0.032693	0.517554
	F1749	F	-0.028795	0.140243	0.410594
	C1750	C	-0.017208	0.119409	0.452193
	C1751	C	-0.015808	0.095532	0.456054
	F1752	F	-0.025371	0.094050	0.417901
	C1753	C	-0.004347	0.073109	0.499325
	C1754	C	0.005765	0.075352	0.538587
	F1755	F	0.016252	0.053921	0.580399
	C1756	C	0.005047	0.099629	0.534583
	F1757	F	0.015674	0.101641	0.572632
	C1758	C	-0.006620	0.121962	0.491349
	F1759	F	0.883635	0.847785	0.549739
	C1760	C	0.885332	0.872533	0.511413
	C1761	C	0.909719	0.894183	0.513933
	F1762	F	0.931318	0.890055	0.554692
	C1763	C	0.912029	0.920272	0.474347
	C1764	C	0.889214	0.923993	0.432105
	F1765	F	0.890829	0.948563	0.393581
	C1766	C	0.864789	0.902394	0.429611
	F1767	F	0.843308	0.906531	0.388761
	C1768	C	0.862440	0.876373	0.469231
	F1769	F	0.139465	-0.046699	0.605280
	C1770	C	0.124238	-0.028487	0.564064
	C1771	C	0.099003	-0.027722	0.556955
	F1772	F	0.090157	-0.045365	0.591363
	C1773	C	0.082850	-0.008562	0.514367
	C1774	C	0.092854	0.009905	0.479306
	F1775	F	0.077810	0.028449	0.438388
	C1776	C	0.118117	0.009223	0.486460
	F1777	F	0.127373	0.027622	0.452486
	C1778	C	0.133958	-0.010423	0.528673
	C1779	C	0.022247	0.212985	0.500303
	C1780	C	0.009845	0.224638	0.504709
	C1781	C	-0.017865	0.212614	0.500793
	C1782	C	-0.033047	0.188509	0.493479
	C1783	C	-0.020294	0.176118	0.490334
	C1784	C	0.007010	0.188580	0.492966
	C1785	C	0.031028	0.249287	0.514845
	C1786	C	0.051505	0.231192	0.504520
	N1787	N	0.055566	0.252508	0.513724
	O1788	O	0.068794	0.229132	0.501113
	O1789	O	0.029033	0.263661	0.523780
	C1790	C	-0.062265	0.181725	0.488789
	C1791	C	-0.035965	0.220967	0.503948
	N1792	N	-0.062777	0.202642	0.494172
	O1793	O	-0.030152	0.239168	0.513209
	O1794	O	-0.082107	0.163121	0.481341
	C1795	C	0.014972	0.170794	0.488594
	C1796	C	-0.030052	0.148914	0.487037
	N1797	N	-0.007581	0.146475	0.487491
	O1798	O	-0.051908	0.131522	0.484993
	O1799	O	0.035533	0.175413	0.485078
	C1800	C	0.766320	0.810883	0.465603
	C1801	C	0.750768	0.787799	0.455794
	C1802	C	0.762774	0.776114	0.450383
	C1803	C	0.789474	0.788917	0.450844
	C1804	C	0.804086	0.814227	0.455586
	C1805	C	0.793107	0.824550	0.464699
	C1806	C	0.722823	0.777879	0.457064
	C1807	C	0.749874	0.813849	0.479727
	N1808	N	0.723802	0.793225	0.473827
	O1809	O	0.756935	0.828774	0.495868
	O1810	O	0.702733	0.760801	0.445271
	C1811	C	0.796495	0.771000	0.445163
	C1812	C	0.752884	0.748306	0.449172
	N1813	N	0.774202	0.745971	0.447103
	O1814	O	0.731549	0.730348	0.450528
	O1815	O	0.816020	0.775771	0.439011
	C1816	C	0.814497	0.850353	0.471700
	C1817	C	0.832842	0.832552	0.457377
	N1818	N	0.837812	0.854186	0.466456
	O1819	O	0.849372	0.830159	0.452748
	O1820	O	0.813396	0.865410	0.480406
	C1821	C	0.202386	-0.040204	0.535725
	C1822	C	0.227728	-0.025688	0.530892
	C1823	C	0.240252	0.002302	0.526565
	C1824	C	0.227907	0.015468	0.528432
	C1825	C	0.201914	0.001167	0.532113
	C1826	C	0.189006	-0.026243	0.534872
	C1827	C	0.236970	-0.044926	0.531490
	C1828	C	0.194517	-0.069572	0.539692
	N1829	N	0.216471	-0.071201	0.537670
	O1830	O	0.174325	-0.088779	0.544171
	O1831	O	0.257237	-0.040265	0.527190
	C1832	C	0.246160	0.045284	0.522385
	C1833	C	0.266664	0.022895	0.519510
	N1834	N	0.269111	0.048396	0.517011
	O1835	O	0.282930	0.019860	0.515213
	O1836	O	0.242829	0.063749	0.521235
	C1837	C	0.160956	-0.035072	0.535557
	C1838	C	0.183574	0.009696	0.534714
	N1839	N	0.158687	-0.012362	0.534664
	O1840	O	0.188125	0.030105	0.538097
	O1841	O	0.142862	-0.056443	0.535890
	F1842	F	0.913088	0.244110	0.406468
	C1843	C	0.902753	0.232210	0.437390
	C1844	C	0.882140	0.242838	0.425829
	F1845	F	0.872647	0.264647	0.383908
	C1846	C	0.871247	0.231169	0.457594
	C1847	C	0.880480	0.207420	0.500509
	F1848	F	0.869378	0.195137	0.530588
	C1849	C	0.901119	0.196678	0.512108
	F1850	F	0.909618	0.173931	0.553102
	C1851	C	0.913215	0.209615	0.481239
	F1852	F	0.103999	0.237099	0.593005
	C1853	C	0.103523	0.265175	0.564749
	C1854	C	0.125768	0.285871	0.577511
	F1855	F	0.147675	0.277570	0.617601
	C1856	C	0.125270	0.315266	0.549235
	C1857	C	0.102748	0.323555	0.506464
	F1858	F	0.101923	0.351566	0.478494
	C1859	C	0.081042	0.302942	0.492972
	F1860	F	0.060292	0.311358	0.451192
	C1861	C	0.080365	0.273375	0.523054
	F1862	F	0.710004	0.736764	0.537703
	C1863	C	0.696908	0.756033	0.521607
	C1864	C	0.676584	0.746866	0.536668
	F1865	F	0.671542	0.719442	0.568597
	C1866	C	0.661201	0.765846	0.518528
	C1867	C	0.668510	0.794878	0.487795
	F1868	F	0.655341	0.813976	0.471911
	C1869	C	0.689323	0.804219	0.473448
	F1870	F	0.695610	0.832026	0.443695
	C1871	C	0.703628	0.784850	0.489663
	F1872	F	0.764309	0.745927	0.370742
	C1873	C	0.765296	0.720932	0.409525
	C1874	C	0.758390	0.695224	0.409627
	F1875	F	0.750780	0.695630	0.370762
	C1876	C	0.759178	0.668846	0.450021
	C1877	C	0.768682	0.669075	0.490815
	F1878	F	0.770392	0.644129	0.530010
	C1879	C	0.776058	0.694949	0.490710
	F1880	F	0.785951	0.694992	0.530176
	C1881	C	0.772910	0.721003	0.449470
	F1882	F	0.237839	0.884201	0.624755
	C1883	C	0.231773	0.883229	0.587986
	C1884	C	0.238426	0.861511	0.594304
	F1885	F	0.250684	0.841773	0.637094
	C1886	C	0.232663	0.860281	0.556392
	C1887	C	0.218616	0.880390	0.512165
	F1888	F	0.211605	0.878608	0.475563
	C1889	C	0.212314	0.902344	0.505875
	F1890	F	0.199819	0.921978	0.463253
	C1891	C	0.219376	0.904469	0.543737
	F1892	F	0.256734	0.096484	0.430167
	C1893	C	0.283412	0.096846	0.460029
	C1894	C	0.304406	0.119735	0.445754
	F1895	F	0.297684	0.141373	0.402482
	C1896	C	0.332514	0.120237	0.475851
	C1897	C	0.338924	0.097767	0.521323
	F1898	F	0.365580	0.097589	0.550978
	C1899	C	0.317862	0.075290	0.535949
	F1900	F	0.324403	0.054488	0.579891
	C1901	C	0.289891	0.073867	0.504973
	C1902	C	0.781792	0.283433	0.397666
	C1903	C	0.785399	0.262414	0.397815
	C1904	C	0.812480	0.259255	0.416698
	C1905	C	0.835396	0.276728	0.436006
	C1906	C	0.831683	0.298275	0.435080
	C1907	C	0.804921	0.301671	0.415625
	C1908	C	0.756737	0.245306	0.379191
	C1909	C	0.751078	0.281517	0.377134
	N1910	N	0.737004	0.257813	0.367679
	O1911	O	0.739457	0.296080	0.370393
	O1912	O	0.750564	0.224580	0.375316
	C1913	C	0.861319	0.267854	0.454923
	C1914	C	0.823104	0.238965	0.421853
	N1915	N	0.852540	0.244491	0.446644
	O1916	O	0.810513	0.221947	0.407077
	O1917	O	0.885281	0.277793	0.473401
	C1918	C	0.806808	0.325057	0.421150
	C1919	C	0.851845	0.319611	0.453837
	N1920	N	0.835511	0.335100	0.444163
	O1921	O	0.876785	0.323870	0.473287
	O1922	O	0.788617	0.334361	0.409620
	C1923	C	0.167767	0.369648	0.592057
	C1924	C	0.187207	0.369430	0.584102
	C1925	C	0.213639	0.388337	0.591179
	C1926	C	0.220725	0.406479	0.607677
	C1927	C	0.200251	0.408120	0.612224
	C1928	C	0.173919	0.389874	0.604390
	C1929	C	0.173530	0.348012	0.566092
	C1930	C	0.141333	0.348111	0.580457
	N1931	N	0.145975	0.335897	0.564811
	O1932	O	0.120039	0.341200	0.583996
	O1933	O	0.183081	0.341702	0.554573
	C1934	C	0.249448	0.425204	0.609359
	C1935	C	0.236739	0.396348	0.578561
	N1936	N	0.257482	0.419034	0.589394
	O1937	O	0.237691	0.387545	0.559731
	O1938	O	0.263606	0.442361	0.624067
	C1939	C	0.155479	0.399162	0.605596
	C1940	C	0.199733	0.429256	0.619764
	N1941	N	0.171794	0.424227	0.611920
	O1942	O	0.218351	0.447705	0.629695
	O1943	O	0.131599	0.388962	0.601423
	C1944	C	0.594216	0.727830	0.534893
	C1945	C	0.603753	0.749097	0.546949
	C1946	C	0.586507	0.752441	0.555655
	C1947	C	0.561098	0.732957	0.556298
	C1948	C	0.551931	0.710886	0.545704
	C1949	C	0.568010	0.708850	0.533654
	C1950	C	0.632621	0.765311	0.546929
	C1951	C	0.614783	0.732606	0.520067
	N1952	N	0.637691	0.755087	0.528727
	O1953	O	0.612598	0.721481	0.501560
	O1954	O	0.649086	0.782824	0.560569
	C1955	C	0.547027	0.742277	0.565298
	C1956	C	0.588887	0.775744	0.561898
	N1957	N	0.563749	0.769316	0.564854
	O1958	O	0.607400	0.796600	0.563258
	O1959	O	0.525927	0.730608	0.571834
	C1960	C	0.552031	0.684542	0.521126
	C1961	C	0.525512	0.687671	0.542481
	N1962	N	0.526450	0.673030	0.526386
	O1963	O	0.506680	0.681655	0.551358
	O1964	O	0.558616	0.675917	0.508703
	C1965	C	0.730848	0.569970	0.418036
	C1966	C	0.752764	0.590575	0.431168
	C1967	C	0.747790	0.608455	0.436117
	C1968	C	0.721114	0.604853	0.429592
	C1969	C	0.699136	0.583621	0.417329
	C1970	C	0.703971	0.566362	0.411360
	C1971	C	0.779356	0.587063	0.441240
	C1972	C	0.742230	0.554500	0.414875
	N1973	N	0.771656	0.564728	0.431396
	O1974	O	0.730192	0.537539	0.400092
	O1975	O	0.803038	0.599469	0.455473
	C1976	C	0.722191	0.626722	0.437516
	C1977	C	0.767024	0.632170	0.449647
	N1978	N	0.750285	0.642786	0.448689
	O1979	O	0.791726	0.641434	0.459708
	O1980	O	0.704022	0.630988	0.435696
	C1981	C	0.677290	0.544660	0.401038
	C1982	C	0.669501	0.572575	0.413323
	N1983	N	0.657728	0.548578	0.404908
	O1984	O	0.657353	0.580835	0.417660
	O1985	O	0.672370	0.526554	0.392265
	C1986	C	0.270214	0.823597	0.562547
	C1987	C	0.246444	0.801733	0.567220
	C1988	C	0.243154	0.775618	0.570930
	C1989	C	0.263385	0.772214	0.568808
	C1990	C	0.286636	0.794764	0.561987
	C1991	C	0.290290	0.820237	0.559521
	C1992	C	0.228658	0.812218	0.567872
	C1993	C	0.268348	0.848772	0.559430
	N1994	N	0.242771	0.840919	0.562086
	O1995	O	0.284575	0.871626	0.555493
	O1996	O	0.206883	0.800016	0.572372
	C1997	C	0.254955	0.742618	0.573851
	C1998	C	0.221000	0.747732	0.578021
	N1999	N	0.229351	0.728849	0.579257
	O2000	O	0.200287	0.741216	0.582729
	O2001	O	0.267088	0.731626	0.574164
	C2002	C	0.317663	0.839578	0.554807
	C2003	C	0.310723	0.797302	0.556796
	N2004	N	0.329171	0.824240	0.554300
	O2005	O	0.314306	0.781222	0.553092
	O2006	O	0.328717	0.863365	0.551696
	C2007	C	0.419944	0.225959	0.406468
	C2008	C	0.400869	0.215870	0.424327
	C2009	C	0.384616	0.187445	0.435253
	C2010	C	0.388526	0.169069	0.430105
	C2011	C	0.408835	0.178914	0.414041
	C2012	C	0.424300	0.207261	0.402351
	C2013	C	0.405101	0.238761	0.433349
	C2014	C	0.434444	0.256741	0.397947
	N2015	N	0.425921	0.262647	0.417489
	O2016	O	0.450108	0.273684	0.378477
	O2017	O	0.394852	0.237470	0.452861
	C2018	C	0.368551	0.140254	0.445070
	C2019	C	0.362628	0.170793	0.454831
	N2020	N	0.353709	0.142604	0.459848
	O2021	O	0.353737	0.178914	0.464742
	O2022	O	0.364754	0.118856	0.444869
	C2023	C	0.445870	0.211673	0.390097
	C2024	C	0.420436	0.164029	0.409748
	N2025	N	0.443493	0.184786	0.396971
	O2026	O	0.413150	0.139819	0.415646
	O2027	O	0.462964	0.233120	0.377679
	F2028	F	0.833276	0.324242	0.520403
	C2029	C	0.843544	0.351318	0.493572
	C2030	C	0.851614	0.373535	0.502861
	F2031	F	0.848597	0.367851	0.538017
	C2032	C	0.862834	0.401949	0.475812
	C2033	C	0.865161	0.407755	0.438384
	F2034	F	0.875804	0.434761	0.411999
	C2035	C	0.856441	0.385656	0.428405
	F2036	F	0.858338	0.391670	0.392004
	C2037	C	0.845639	0.357156	0.455874
	F2038	F	0.691418	0.268412	0.281023
	C2039	C	0.686402	0.250428	0.319447
	C2040	C	0.658939	0.238315	0.316294
	F2041	F	0.637799	0.245421	0.274861
	C2042	C	0.653330	0.218764	0.356189
	C2043	C	0.675800	0.212855	0.399175
	F2044	F	0.670879	0.194941	0.437755
	C2045	C	0.703118	0.225150	0.402301
	F2046	F	0.724290	0.218874	0.443843
	C2047	C	0.708831	0.244063	0.362536
	F2048	F	0.297103	0.510034	0.486389
	C2049	C	0.298381	0.482536	0.518905
	C2050	C	0.279182	0.465833	0.539549
	F2051	F	0.259908	0.477614	0.526509
	C2052	C	0.279269	0.436778	0.572934
	C2053	C	0.300256	0.425475	0.586879
	F2054	F	0.301688	0.398150	0.620151
	C2055	C	0.319399	0.442125	0.566122
	F2056	F	0.338506	0.430071	0.579395
	C2057	C	0.318753	0.470950	0.531552
	F2058	F	0.141839	0.465186	0.525468
	C2059	C	0.148140	0.464329	0.563988
	C2060	C	0.141314	0.484711	0.560711
	F2061	F	0.128535	0.504807	0.519260
	C2062	C	0.147475	0.484358	0.600280
	C2063	C	0.159177	0.461932	0.643167
	F2064	F	0.163853	0.459681	0.681848
	C2065	C	0.165843	0.441570	0.646335
	F2066	F	0.176462	0.420069	0.687543
	C2067	C	0.161556	0.443077	0.607092
	F2068	F	0.477478	0.686862	0.448608
	C2069	C	0.479418	0.659156	0.475051
	C2070	C	0.456892	0.638101	0.463685
	F2071	F	0.433472	0.645637	0.426571
	C2072	C	0.458584	0.609089	0.490499
	C2073	C	0.483464	0.601764	0.528829
	F2074	F	0.486049	0.574362	0.553675
	C2075	C	0.505682	0.622661	0.540955
	F2076	F	0.528985	0.615024	0.578332
	C2077	C	0.504015	0.651688	0.514089
	F2078	F	0.583367	0.790534	0.624846
	C2079	C	0.561836	0.799342	0.584610
	C2080	C	0.548874	0.817766	0.574094
	F2081	F	0.558019	0.826241	0.604632
	C2082	C	0.526580	0.827783	0.531776
	C2083	C	0.518487	0.820051	0.499330
	F2084	F	0.498628	0.831176	0.457454
	C2085	C	0.531247	0.801306	0.510187
	F2086	F	0.523359	0.794074	0.478865
	C2087	C	0.552571	0.790014	0.553508
	F2088	F	0.667868	0.499309	0.488272
	C2089	C	0.641281	0.501382	0.459956
	C2090	C	0.620013	0.479179	0.473864
	F2091	F	0.626171	0.455796	0.515140
	C2092	C	0.592200	0.481310	0.445367
	C2093	C	0.586151	0.505890	0.402122
	F2094	F	0.559696	0.508613	0.374949
	C2095	C	0.607428	0.527736	0.387575
	F2096	F	0.601323	0.550785	0.345871
	C2097	C	0.635298	0.525966	0.416745
	F2098	F	0.808849	0.590667	0.390252
	C2099	C	0.809290	0.563791	0.425390
	C2100	C	0.828256	0.549491	0.441044
	F2101	F	0.846880	0.563189	0.422318
	C2102	C	0.828143	0.520896	0.476455
	C2103	C	0.809629	0.507441	0.497479
	F2104	F	0.809950	0.480437	0.532228
	C2105	C	0.791316	0.522068	0.482886
	F2106	F	0.774293	0.509226	0.504235
	C2107	C	0.790598	0.550254	0.446124
	F2108	F	0.334705	0.864499	0.470854
	C2109	C	0.357218	0.854788	0.508237
	C2110	C	0.382404	0.864702	0.504317
	F2111	F	0.384015	0.884361	0.463172
	C2112	C	0.406082	0.854404	0.542942
	C2113	C	0.403972	0.834346	0.585725
	F2114	F	0.426612	0.825056	0.623270
	C2115	C	0.378681	0.824200	0.589554
	F2116	F	0.376994	0.804580	0.630649
	C2117	C	0.354987	0.834411	0.550862
	F2118	F	0.245874	0.680627	0.663535
	C2119	C	0.224195	0.676406	0.627715
	C2120	C	0.211146	0.648348	0.633151
	F2121	F	0.220279	0.625770	0.674095
	C2122	C	0.188217	0.643395	0.596365
	C2123	C	0.179156	0.667316	0.553721
	F2124	F	0.157635	0.663074	0.517837
	C2125	C	0.192009	0.695353	0.548409
	F2126	F	0.182151	0.717710	0.507784
	C2127	C	0.214895	0.700331	0.585229
	F2128	F	0.491763	0.170467	0.476294
	C2129	C	0.489836	0.175112	0.437729
	C2130	C	0.512785	0.175424	0.436906
	F2131	F	0.537002	0.172687	0.473734
	C2132	C	0.510639	0.178093	0.398154
	C2133	C	0.485325	0.181861	0.359584
	F2134	F	0.483021	0.185141	0.321735
	C2135	C	0.462479	0.181777	0.360383
	F2136	F	0.437998	0.183503	0.324355
	C2137	C	0.464680	0.179480	0.398828
	F2138	F	0.400917	0.304133	0.386325
	C2139	C	0.427694	0.304843	0.415750
	C2140	C	0.442118	0.325198	0.431704
	F2141	F	0.428797	0.343530	0.417819
	C2142	C	0.470262	0.326657	0.462183
	C2143	C	0.483460	0.306982	0.476474
	F2144	F	0.510132	0.307327	0.506400
	C2145	C	0.469190	0.287023	0.459878
	F2146	F	0.482909	0.269382	0.472865
	C2147	C	0.440884	0.285093	0.430212
	C2148	C	0.899047	0.452237	0.525252
	C2149	C	0.872220	0.457086	0.499790
	C2150	C	0.866170	0.476087	0.501007
	C2151	C	0.886881	0.489620	0.528274
	C2152	C	0.913755	0.484403	0.554393
	C2153	C	0.919856	0.465863	0.552813
	C2154	C	0.854546	0.439526	0.474210
	C2155	C	0.899438	0.431110	0.517467
	N2156	N	0.871987	0.423965	0.487034
	O2157	O	0.918321	0.421372	0.532581
	O2158	O	0.830502	0.437918	0.447890
	C2159	C	0.874436	0.507719	0.524336
	C2160	C	0.840069	0.486600	0.476213
	N2161	N	0.846641	0.505901	0.491331
	O2162	O	0.817672	0.480843	0.448811
	O2163	O	0.884530	0.520690	0.545295
	C2164	C	0.950483	0.466178	0.581467
	C2165	C	0.940147	0.497173	0.584118
	N2166	N	0.961547	0.485448	0.599303
	O2167	O	0.943416	0.514288	0.593452
	O2168	O	0.964197	0.453750	0.588086
	C2169	C	0.551383	0.145883	0.403511
	C2170	C	0.565969	0.174533	0.386553
	C2171	C	0.587562	0.181675	0.375042
	C2172	C	0.593152	0.160312	0.378844
	C2173	C	0.578312	0.131583	0.395757
	C2174	C	0.557668	0.124381	0.408528
	C2175	C	0.553340	0.192095	0.383906
	C2176	C	0.530194	0.143744	0.414228
	N2177	N	0.531490	0.172124	0.400314
	O2178	O	0.514483	0.122828	0.431419
	O2179	O	0.559112	0.217560	0.370776
	C2180	C	0.617472	0.173274	0.366037
	C2181	C	0.608377	0.209440	0.358987
	N2182	N	0.626144	0.202705	0.355236
	O2183	O	0.610968	0.232989	0.351445
	O2184	O	0.628710	0.161652	0.365828
	C2185	C	0.546085	0.092255	0.427016
	C2186	C	0.579274	0.104657	0.402241
	N2187	N	0.559685	0.081727	0.421839
	O2188	O	0.592540	0.101790	0.392118
	O2189	O	0.528861	0.077032	0.443457
	C2190	C	0.406722	0.526205	0.454014
	C2191	C	0.384759	0.502744	0.462949
	C2192	C	0.368392	0.502027	0.478061
	C2193	C	0.375290	0.523908	0.487123
	C2194	C	0.398493	0.546967	0.480406
	C2195	C	0.413602	0.548395	0.462789
	C2196	C	0.385597	0.480138	0.458837
	C2197	C	0.421669	0.519924	0.442071
	N2198	N	0.409387	0.490954	0.449227
	O2199	O	0.440657	0.534803	0.429600
	O2200	O	0.370439	0.456730	0.463797
	C2201	C	0.356665	0.514886	0.509087
	C2202	C	0.344034	0.479455	0.490666
	N2203	N	0.338276	0.487948	0.510385
	O2204	O	0.331439	0.458147	0.485608
	O2205	O	0.357306	0.526762	0.525001
	C2206	C	0.437337	0.574631	0.459872
	C2207	C	0.412856	0.572060	0.490908
	N2208	N	0.436302	0.587535	0.478494
	O2209	O	0.406956	0.578251	0.507602
	O2210	O	0.454602	0.583734	0.445549
	C2211	C	0.138174	0.572297	0.618303
	C2212	C	0.152951	0.569262	0.605157
	C2213	C	0.145327	0.543759	0.603338
	C2214	C	0.122754	0.522146	0.613911
	C2215	C	0.108110	0.525322	0.627366
	C2216	C	0.115654	0.550365	0.629312
	C2217	C	0.175388	0.596660	0.595161
	C2218	C	0.150948	0.600800	0.618719
	N2219	N	0.172700	0.614894	0.603313
	O2220	O	0.145197	0.610634	0.630482
	O2221	O	0.192811	0.603017	0.583158
	C2222	C	0.119418	0.497183	0.610521
	C2223	C	0.156711	0.533480	0.591206
	N2224	N	0.140825	0.504818	0.597973
	O2225	O	0.175074	0.545810	0.577727
	O2226	O	0.102691	0.474447	0.617254
	C2227	C	0.095799	0.548152	0.643086
	C2228	C	0.082376	0.506732	0.637655
	N2229	N	0.075643	0.521796	0.645959
	O2230	O	0.068780	0.483836	0.637893
	O2231	O	0.095971	0.564790	0.650258
	C2232	C	0.489579	0.918500	0.500455
	C2233	C	0.508343	0.914410	0.496199
	C2234	C	0.506721	0.886792	0.507308
	C2235	C	0.486092	0.863490	0.521889
	C2236	C	0.467436	0.867536	0.526984
	C2237	C	0.469497	0.894879	0.516931
	C2238	C	0.527632	0.943179	0.478745
	C2239	C	0.496043	0.950104	0.485590
	N2240	N	0.519236	0.963681	0.473333
	O2241	O	0.484339	0.962715	0.482923
	O2242	O	0.546482	0.949089	0.470025
	C2243	C	0.490024	0.836932	0.531703
	C2244	C	0.523864	0.876371	0.505636
	N2245	N	0.513351	0.846129	0.521885
	O2246	O	0.542791	0.889722	0.493143
	O2247	O	0.477048	0.812350	0.545347
	C2248	C	0.447504	0.892834	0.526152
	C2249	C	0.442661	0.847392	0.539972
	N2250	N	0.431431	0.864024	0.538424
	O2251	O	0.433002	0.822258	0.549656
	O2252	O	0.443899	0.910744	0.525941
	C2253	C	0.536106	0.434220	0.489923
	C2254	C	0.536535	0.416722	0.478962
	C2255	C	0.516476	0.390669	0.482543
	C2256	C	0.496319	0.382311	0.497233
	C2257	C	0.495525	0.400324	0.507130
	C2258	C	0.515136	0.426273	0.503105
	C2259	C	0.558667	0.432614	0.459942
	C2260	C	0.558616	0.461280	0.480201
	N2261	N	0.570952	0.459338	0.461185
	O2262	O	0.565702	0.481317	0.486358
	O2263	O	0.565116	0.425383	0.445334
	C2264	C	0.477514	0.354068	0.497031
	C2265	C	0.509223	0.369797	0.467233
	N2266	N	0.485473	0.348340	0.476499
	O2267	O	0.519827	0.370973	0.448332
	O2268	O	0.459376	0.338612	0.511483
	C2269	C	0.506935	0.442440	0.510006
	C2270	C	0.473475	0.399594	0.514637
	N2271	N	0.480580	0.426244	0.513404
	O2272	O	0.452988	0.381103	0.519698
	O2273	O	0.518765	0.464814	0.511898
	F2274	F	-0.015216	0.541225	0.547487
	C2275	C	0.001754	0.524398	0.587991
	C2276	C	0.030340	0.533612	0.599729
	F2277	F	0.040581	0.559253	0.570349
	C2278	C	0.048300	0.515828	0.641099
	C2279	C	0.037396	0.490387	0.673063
	F2280	F	0.054577	0.474619	0.714732
	C2281	C	0.008665	0.481035	0.661112
	F2282	F	-0.001670	0.456243	0.691239
	C2283	C	-0.009505	0.497128	0.617202
	F2284	F	0.564778	-0.016880	0.536285
	C2285	C	0.554108	0.002579	0.492245
	C2286	C	0.564177	0.031935	0.479479
	F2287	F	0.584199	0.040698	0.511303
	C2288	C	0.553205	0.052479	0.433469
	C2289	C	0.533745	0.043229	0.399919
	F2290	F	0.524950	0.062887	0.355391
	C2291	C	0.523382	0.013844	0.412794
	F2292	F	0.504442	0.005099	0.380672
	C2293	C	0.532497	-0.006742	0.459371
	F2294	F	0.452329	0.476319	0.535077
	C2295	C	0.447461	0.466011	0.509561
	C2296	C	0.464485	0.449094	0.526665
	F2297	F	0.484656	0.442252	0.569077
	C2298	C	0.460800	0.439470	0.499645
	C2299	C	0.438426	0.445614	0.456358
	F2300	F	0.433755	0.435741	0.430420
	C2301	C	0.421074	0.462125	0.439580
	F2302	F	0.400169	0.468009	0.397960
	C2303	C	0.425630	0.472911	0.465720
	C2304	C	0.021086	0.027387	0.687252
	C2305	C	-0.004190	0.014133	0.692232
	C2306	C	-0.017914	-0.013903	0.696626
	C2307	C	-0.006153	-0.028408	0.696209
	C2308	C	0.019451	-0.015087	0.691405
	C2309	C	0.033002	0.012656	0.686945
	C2310	C	-0.011345	0.034646	0.692419
	C2311	C	0.030002	0.057582	0.680948
	N2312	N	0.009343	0.060831	0.683542
	O2313	O	0.050122	0.076312	0.674624
	O2314	O	-0.029948	0.030684	0.699944
	C2315	C	-0.026140	-0.056950	0.698653
	C2316	C	-0.045241	-0.033313	0.701568
	N2317	N	-0.049402	-0.058579	0.701416
	O2318	O	-0.061159	-0.029152	0.704961
	O2319	O	-0.024295	-0.075233	0.697338
	C2320	C	0.059971	0.020883	0.683407
	C2321	C	0.037171	-0.025538	0.690705
	N2322	N	0.061457	-0.003124	0.686509
	O2323	O	0.032860	-0.047948	0.692810
	O2324	O	0.077667	0.042870	0.679052
	F2325	F	-0.010548	0.155382	0.592353
	C2326	C	-0.000355	0.133620	0.633776
	C2327	C	-0.001399	0.108830	0.636877
	F2328	F	-0.013406	0.106820	0.598355
	C2329	C	0.009953	0.086120	0.679666
	C2330	C	0.021979	0.088917	0.719137
	F2331	F	0.033255	0.067653	0.760277
	C2332	C	0.022107	0.113214	0.716187
	F2333	F	0.032898	0.114756	0.754755
	C2334	C	0.010908	0.135995	0.673385
	F2335	F	0.896472	0.844582	0.764564
	C2336	C	0.898407	0.870808	0.728444
	C2337	C	0.922549	0.892348	0.734391
	F2338	F	0.943361	0.886467	0.776167
	C2339	C	0.925417	0.919897	0.697147
	C2340	C	0.902960	0.925505	0.654175
	F2341	F	0.904944	0.951797	0.618094
	C2342	C	0.878779	0.904076	0.648310
	F2343	F	0.857747	0.910037	0.606671
	C2344	C	0.876239	0.876251	0.685180
	F2345	F	0.155901	-0.013649	0.762964
	C2346	C	0.132103	-0.009533	0.725243
	C2347	C	0.109043	-0.009927	0.725953
	F2348	F	0.110668	-0.015275	0.764839
	C2349	C	0.084158	-0.004747	0.686559
	C2350	C	0.082362	-0.001226	0.647337
	F2351	F	0.058431	0.002411	0.609852
	C2352	C	0.105155	-0.001683	0.647086
	F2353	F	0.102955	0.001096	0.609691
	C2354	C	0.130563	-0.005088	0.685532
	C2355	C	0.036796	0.218227	0.701911
	C2356	C	0.021513	0.229501	0.701715
	C2357	C	-0.007672	0.220519	0.685641
	C2358	C	-0.021480	0.200124	0.670100
	C2359	C	-0.006039	0.188310	0.671026
	C2360	C	0.022931	0.197108	0.687156
	C2361	C	0.041529	0.250598	0.720734
	C2362	C	0.067147	0.233279	0.718351
	N2363	N	0.068534	0.252691	0.728735
	O2364	O	0.086988	0.230793	0.721734
	O2365	O	0.036681	0.263563	0.728580
	C2366	C	-0.052474	0.195624	0.653733
	C2367	C	-0.029037	0.228576	0.682296
	N2368	N	-0.055619	0.213615	0.661623
	O2369	O	-0.025640	0.243787	0.695253
	O2370	O	-0.071700	0.180400	0.636995
	C2371	C	0.033510	0.180218	0.685084
	C2372	C	-0.014844	0.164610	0.660184
	N2373	N	0.009883	0.160034	0.670707
	O2374	O	-0.037789	0.151043	0.645943
	O2375	O	0.056795	0.182170	0.693304
	C2376	C	0.776173	0.818361	0.645748
	C2377	C	0.761814	0.799050	0.628120
	C2378	C	0.776502	0.787763	0.626721
	C2379	C	0.805221	0.797048	0.640031
	C2380	C	0.819314	0.819372	0.652349
	C2381	C	0.804997	0.829476	0.656192
	C2382	C	0.731448	0.791379	0.618258
	C2383	C	0.755734	0.821091	0.652741
	N2384	N	0.729179	0.803834	0.636264
	O2385	O	0.760087	0.833269	0.671415
	O2386	O	0.712111	0.777689	0.598626
	C2387	C	0.814619	0.778831	0.638339
	C2388	C	0.766797	0.762504	0.619141
	N2389	N	0.790516	0.757307	0.628005
	O2390	O	0.743608	0.748046	0.608831
	O2391	O	0.837226	0.780629	0.644212
	C2392	C	0.825740	0.851463	0.673322
	C2393	C	0.849590	0.834889	0.666365
	N2394	N	0.852069	0.854348	0.677671
	O2395	O	0.868746	0.832682	0.667494
	O2396	O	0.821786	0.864886	0.681518
	C2397	C	0.195742	-0.029811	0.677845
	C2398	C	0.216653	-0.013263	0.661021
	C2399	C	0.225531	0.016562	0.646418
	C2400	C	0.213251	0.029921	0.648044
	C2401	C	0.190944	0.013541	0.662457
	C2402	C	0.182520	-0.016216	0.677870
	C2403	C	0.226532	-0.032919	0.663696
	C2404	C	0.192340	-0.061109	0.693854
	N2405	N	0.212018	-0.061477	0.685370
	O2406	O	0.176853	-0.082428	0.710882
	O2407	O	0.242645	-0.027030	0.649448
	C2408	C	0.228074	0.061549	0.631999
	C2409	C	0.248720	0.038692	0.630244
	N2410	N	0.249448	0.065269	0.622486
	O2411	O	0.264496	0.035429	0.625248
	O2412	O	0.224006	0.080648	0.628193
	C2413	C	0.158538	-0.027916	0.691123
	C2414	C	0.173244	0.021672	0.666972
	N2415	N	0.153791	-0.004088	0.683508
	O2416	O	0.174230	0.044755	0.659050
	O2417	O	0.145031	-0.052208	0.705174
	F2418	F	0.908783	0.242427	0.570251
	C2419	C	0.902334	0.233506	0.604074
	C2420	C	0.879670	0.240788	0.593617
	F2421	F	0.864075	0.256359	0.549695
	C2422	C	0.873013	0.231999	0.628781
	C2423	C	0.887706	0.213220	0.673980
	F2424	F	0.879991	0.202403	0.707498
	C2425	C	0.910375	0.206022	0.684400
	F2426	F	0.924632	0.188610	0.727913
	C2427	C	0.918806	0.217189	0.649869
	F2428	F	0.113434	0.238639	0.815692
	C2429	C	0.113892	0.266462	0.783951
	C2430	C	0.135793	0.287919	0.795182
	F2431	F	0.155734	0.280595	0.837885
	C2432	C	0.137237	0.317155	0.762246
	C2433	C	0.116093	0.324357	0.717872
	F2434	F	0.117175	0.352215	0.685934
	C2435	C	0.094082	0.302978	0.706784
	F2436	F	0.074236	0.310404	0.663968
	C2437	C	0.092353	0.273747	0.739890
	F2438	F	0.711875	0.746039	0.691102
	C2439	C	0.698265	0.764590	0.675794
	C2440	C	0.676684	0.754168	0.689052
	F2441	F	0.670597	0.725989	0.717812
	C2442	C	0.661502	0.772683	0.672991
	C2443	C	0.668787	0.802039	0.643158
	F2444	F	0.654759	0.820448	0.627047
	C2445	C	0.690671	0.812525	0.630285
	F2446	F	0.697212	0.840679	0.601969
	C2447	C	0.706065	0.794008	0.646956
	F2448	F	0.772212	0.754054	0.549960
	C2449	C	0.777216	0.730154	0.590591
	C2450	C	0.769806	0.703744	0.592118
	F2451	F	0.756496	0.702425	0.552678
	C2452	C	0.775972	0.678634	0.634220
	C2453	C	0.790236	0.681086	0.674634
	F2454	F	0.797604	0.657738	0.715251
	C2455	C	0.796480	0.707268	0.673060
	F2456	F	0.809239	0.708703	0.712307
	C2457	C	0.789295	0.732096	0.630819
	F2458	F	0.254896	0.917016	0.770135
	C2459	C	0.242558	0.904471	0.743600
	C2460	C	0.252854	0.882770	0.757252
	F2461	F	0.274897	0.874343	0.796943
	C2462	C	0.240433	0.869575	0.729827
	C2463	C	0.216127	0.877116	0.690138
	F2464	F	0.202539	0.863023	0.665523
	C2465	C	0.206129	0.899255	0.675941
	F2466	F	0.183589	0.907091	0.636928
	C2467	C	0.219670	0.913722	0.701902
	F2468	F	0.243236	0.110961	0.532726
	C2469	C	0.268058	0.111885	0.567484
	C2470	C	0.290833	0.134113	0.558301
	F2471	F	0.287788	0.154264	0.514716
	C2472	C	0.316997	0.135604	0.594156
	C2473	C	0.319382	0.115144	0.639590
	F2474	F	0.343857	0.116969	0.674472
	C2475	C	0.296664	0.092889	0.648751
	F2476	F	0.299372	0.073493	0.692454
	C2477	C	0.270974	0.090328	0.612764
	C2478	C	0.784780	0.262136	0.616070
	C2479	C	0.788442	0.243052	0.612087
	C2480	C	0.814330	0.246869	0.614821
	C2481	C	0.835872	0.270167	0.620266
	C2482	C	0.831735	0.290019	0.622497
	C2483	C	0.806502	0.285513	0.621673
	C2484	C	0.761415	0.220683	0.606012
	C2485	C	0.755392	0.253226	0.611661
	N2486	N	0.742392	0.228154	0.605849
	O2487	O	0.744029	0.264682	0.611917
	O2488	O	0.755615	0.200449	0.601258
	C2489	C	0.860916	0.268748	0.622423
	C2490	C	0.825122	0.229353	0.614296
	N2491	N	0.853474	0.243331	0.620014
	O2492	O	0.813325	0.207884	0.609805
	O2493	O	0.883373	0.285129	0.625583
	C2494	C	0.808373	0.308807	0.627394
	C2495	C	0.850566	0.316944	0.627715
	N2496	N	0.834967	0.327611	0.629238
	O2497	O	0.874080	0.328412	0.630065
	O2498	O	0.791959	0.311598	0.631730
	C2499	C	0.184518	0.381063	0.782665
	C2500	C	0.199852	0.376880	0.771834
	C2501	C	0.224333	0.397181	0.765718
	C2502	C	0.233708	0.420779	0.772399
	C2503	C	0.217495	0.425924	0.780327
	C2504	C	0.192792	0.406543	0.784986
	C2505	C	0.184210	0.350397	0.764920
	C2506	C	0.158543	0.357092	0.783170
	N2507	N	0.159631	0.339305	0.772469
	O2508	O	0.139566	0.352741	0.790222
	O2509	O	0.189922	0.340087	0.753866
	C2510	C	0.259553	0.439477	0.762878
	C2511	C	0.242866	0.401418	0.747461
	N2512	N	0.263537	0.427459	0.746323
	O2513	O	0.240706	0.387311	0.733730
	O2514	O	0.274425	0.460726	0.767740
	C2515	C	0.179878	0.419789	0.789940
	C2516	C	0.221167	0.451923	0.781161
	N2517	N	0.197317	0.448023	0.784401
	O2518	O	0.240109	0.472897	0.779058
	O2519	O	0.159425	0.409948	0.797423
	C2520	C	0.598098	0.731599	0.700274
	C2521	C	0.608312	0.752672	0.713099
	C2522	C	0.592388	0.754697	0.725929
	C2523	C	0.567963	0.734087	0.729999
	C2524	C	0.558132	0.712400	0.718303
	C2525	C	0.572655	0.711698	0.702081
	C2526	C	0.635602	0.770764	0.707216
	C2527	C	0.616530	0.737804	0.680311
	N2528	N	0.639017	0.761307	0.685967
	O2529	O	0.612987	0.726704	0.660620
	O2530	O	0.652129	0.789276	0.718567
	C2531	C	0.554726	0.742296	0.741944
	C2532	C	0.594560	0.777881	0.732265
	N2533	N	0.570311	0.770081	0.738870
	O2534	O	0.612203	0.799637	0.730972
	O2535	O	0.534784	0.729508	0.751903
	C2536	C	0.555806	0.687932	0.688323
	C2537	C	0.531932	0.688839	0.716675
	N2538	N	0.531514	0.675217	0.697622
	O2539	O	0.514068	0.682032	0.728232
	O2540	O	0.560704	0.680639	0.671851
	C2541	C	0.747017	0.572066	0.618353
	C2542	C	0.768131	0.595921	0.622115
	C2543	C	0.764129	0.614570	0.627103
	C2544	C	0.739640	0.608356	0.630279
	C2545	C	0.718269	0.584156	0.626301
	C2546	C	0.721945	0.566527	0.619550
	C2547	C	0.792560	0.595051	0.621534
	C2548	C	0.756287	0.556057	0.612789
	N2549	N	0.784018	0.570397	0.616073
	O2550	O	0.743785	0.535222	0.606460
	O2551	O	0.815245	0.610928	0.625263
	C2552	C	0.741815	0.631449	0.636946
	C2553	C	0.782486	0.642113	0.630741
	N2554	N	0.767584	0.651657	0.635365
	O2555	O	0.805231	0.654761	0.629753
	O2556	O	0.726049	0.633183	0.643945
	C2557	C	0.696504	0.542304	0.616899
	C2558	C	0.690198	0.570955	0.629712
	N2559	N	0.678251	0.545787	0.623795
	O2560	O	0.679355	0.579165	0.636361
	O2561	O	0.691369	0.523337	0.609749
	C2562	C	0.282712	0.831832	0.747785
	C2563	C	0.264343	0.808311	0.768057
	C2564	C	0.265386	0.780024	0.786130
	C2565	C	0.285248	0.775559	0.784819
	C2566	C	0.303559	0.799191	0.764084
	C2567	C	0.302262	0.827282	0.745262
	C2568	C	0.246211	0.819610	0.766323
	C2569	C	0.275548	0.859047	0.729385
	N2570	N	0.253194	0.850224	0.741122
	O2571	O	0.285732	0.883891	0.708621
	O2572	O	0.229665	0.806574	0.783751
	C2573	C	0.280809	0.743616	0.804365
	C2574	C	0.247409	0.750876	0.806611
	N2575	N	0.257566	0.729878	0.816394
	O2576	O	0.227640	0.745302	0.812935
	O2577	O	0.293193	0.730962	0.808511
	C2578	C	0.324324	0.847680	0.725478
	C2579	C	0.326177	0.800416	0.757156
	N2580	N	0.337972	0.830080	0.733910
	O2581	O	0.333719	0.781070	0.767875
	O2582	O	0.330274	0.873636	0.706161
	C2583	C	0.421227	0.230212	0.567198
	C2584	C	0.399433	0.222058	0.578270
	C2585	C	0.378913	0.196636	0.578443
	C2586	C	0.381093	0.179220	0.569262
	C2587	C	0.404139	0.186652	0.560929
	C2588	C	0.424016	0.212047	0.559985
	C2589	C	0.405829	0.242394	0.594160
	C2590	C	0.439562	0.258276	0.568208
	N2591	N	0.430215	0.263882	0.586950
	O2592	O	0.458354	0.273768	0.555266
	O2593	O	0.394491	0.240682	0.612494
	C2594	C	0.356682	0.153523	0.572619
	C2595	C	0.353556	0.182006	0.589753
	N2596	N	0.340841	0.156454	0.584944
	O2597	O	0.344909	0.189301	0.601209
	O2598	O	0.350582	0.133674	0.566688
	C2599	C	0.447714	0.213219	0.555717
	C2600	C	0.414469	0.170819	0.556488
	N2601	N	0.441598	0.187118	0.556302
	O2602	O	0.403458	0.148942	0.553281
	O2603	O	0.468684	0.231657	0.553400
	F2604	F	0.873018	0.330686	0.710684
	C2605	C	0.863567	0.354366	0.673317
	C2606	C	0.872703	0.379550	0.676172
	F2607	F	0.891505	0.379958	0.716235
	C2608	C	0.862502	0.404368	0.637680
	C2609	C	0.843283	0.403345	0.596117
	F2610	F	0.833745	0.426949	0.558612
	C2611	C	0.834174	0.378158	0.593252
	F2612	F	0.815644	0.377729	0.553127
	C2613	C	0.844272	0.353339	0.631807
	F2614	F	0.699684	0.247410	0.519431
	C2615	C	0.692920	0.224345	0.555083
	C2616	C	0.664978	0.211202	0.548346
	F2617	F	0.644960	0.221635	0.506297
	C2618	C	0.657560	0.186924	0.585152
	C2619	C	0.678777	0.176190	0.628867
	F2620	F	0.672011	0.152883	0.664364
	C2621	C	0.706722	0.189353	0.635625
	F2622	F	0.726689	0.178477	0.677485
	C2623	C	0.714133	0.213761	0.598872
	F2624	F	0.294056	0.513854	0.627541
	C2625	C	0.297202	0.487525	0.663577
	C2626	C	0.278768	0.470976	0.685386
	F2627	F	0.258355	0.482011	0.670460
	C2628	C	0.281475	0.443158	0.722863
	C2629	C	0.302696	0.432045	0.737185
	F2630	F	0.305219	0.405274	0.771979
	C2631	C	0.321232	0.448700	0.715471
	F2632	F	0.341239	0.437596	0.729248
	C2633	C	0.319319	0.477014	0.679517
	F2634	F	0.191624	0.502394	0.704580
	C2635	C	0.191121	0.497700	0.741306
	C2636	C	0.189124	0.520287	0.739854
	F2637	F	0.188291	0.546283	0.702580
	C2638	C	0.187558	0.515961	0.776852
	C2639	C	0.190546	0.489328	0.816816
	F2640	F	0.191634	0.485498	0.854178
	C2641	C	0.191804	0.466604	0.817736
	F2642	F	0.192089	0.440639	0.854671
	C2643	C	0.192472	0.470374	0.780433
	F2644	F	0.483644	0.690145	0.618196
	C2645	C	0.484885	0.662237	0.644818
	C2646	C	0.462538	0.641601	0.632184
	F2647	F	0.440078	0.649721	0.593109
	C2648	C	0.463445	0.612331	0.659956
	C2649	C	0.486899	0.604124	0.701192
	F2650	F	0.488008	0.576166	0.728279
	C2651	C	0.509217	0.624747	0.713828
	F2652	F	0.531539	0.616579	0.753185
	C2653	C	0.508662	0.654103	0.685415
	F2654	F	0.588440	0.797495	0.789993
	C2655	C	0.565684	0.802843	0.750714
	C2656	C	0.550787	0.820949	0.736468
	F2657	F	0.559481	0.832911	0.762172
	C2658	C	0.526858	0.826901	0.695419
	C2659	C	0.518565	0.814799	0.668513
	F2660	F	0.496206	0.820903	0.628595
	C2661	C	0.533468	0.796837	0.682629
	F2662	F	0.525219	0.785858	0.655794
	C2663	C	0.556971	0.790140	0.724375
	F2664	F	0.679461	0.491994	0.701676
	C2665	C	0.654659	0.497540	0.667386
	C2666	C	0.630532	0.475964	0.670857
	F2667	F	0.632292	0.450171	0.708717
	C2668	C	0.604341	0.480942	0.635330
	C2669	C	0.603040	0.508030	0.595944
	F2670	F	0.578222	0.513205	0.561394
	C2671	C	0.627187	0.529686	0.592554
	F2672	F	0.625415	0.555481	0.554731
	C2673	C	0.653350	0.524815	0.628316
	F2674	F	0.783930	0.577135	0.540601
	C2675	C	0.800445	0.561191	0.583109
	C2676	C	0.816296	0.547434	0.589131
	F2677	F	0.815185	0.550517	0.552310
	C2678	C	0.833429	0.530337	0.633370
	C2679	C	0.833792	0.526813	0.671476
	F2680	F	0.849709	0.510239	0.714172
	C2681	C	0.817936	0.540551	0.665376
	F2682	F	0.818481	0.536941	0.702129
	C2683	C	0.801269	0.558157	0.621186
	F2684	F	0.328875	0.830267	0.657627
	C2685	C	0.355028	0.838894	0.683532
	C2686	C	0.377032	0.846513	0.673135
	F2687	F	0.372080	0.845156	0.637436
	C2688	C	0.404524	0.855730	0.699537
	C2689	C	0.409579	0.856531	0.737381
	F2690	F	0.435741	0.865181	0.763208
	C2691	C	0.387617	0.848557	0.748169
	F2692	F	0.392854	0.849326	0.784609
	C2693	C	0.360060	0.839774	0.721318
	F2694	F	0.267404	0.678707	0.901748
	C2695	C	0.248223	0.676634	0.863071
	C2696	C	0.234862	0.649496	0.864716
	F2697	F	0.242225	0.625790	0.904692
	C2698	C	0.213937	0.646962	0.824786
	C2699	C	0.207408	0.672206	0.783022
	F2700	F	0.187798	0.670287	0.744278
	C2701	C	0.221140	0.699231	0.781221
	F2702	F	0.214620	0.723113	0.740880
	C2703	C	0.241944	0.701829	0.821086
	F2704	F	0.461280	0.138305	0.638550
	C2705	C	0.472144	0.152861	0.607273
	C2706	C	0.493596	0.144167	0.616985
	F2707	F	0.503003	0.121372	0.657142
	C2708	C	0.505548	0.159142	0.585157
	C2709	C	0.496591	0.183988	0.544695
	F2710	F	0.509327	0.200355	0.515495
	C2711	C	0.474282	0.191772	0.534041
	F2712	F	0.464420	0.213893	0.493135
	C2713	C	0.462007	0.176731	0.565404
	F2714	F	0.405806	0.305059	0.558161
	C2715	C	0.432621	0.305493	0.587358
	C2716	C	0.447565	0.326142	0.602798
	F2717	F	0.434478	0.344517	0.589418
	C2718	C	0.475955	0.327964	0.632040
	C2719	C	0.488556	0.307519	0.647117
	F2720	F	0.515334	0.307898	0.676509
	C2721	C	0.473575	0.286739	0.631935
	F2722	F	0.486471	0.267744	0.646628
	C2723	C	0.445335	0.285317	0.601872
	C2724	C	0.900793	0.468558	0.657714
	C2725	C	0.873798	0.467733	0.646002
	C2726	C	0.869041	0.488329	0.645783
	C2727	C	0.891405	0.509218	0.657702
	C2728	C	0.918714	0.509026	0.671835
	C2729	C	0.923323	0.488954	0.671316
	C2730	C	0.854678	0.442476	0.636123
	C2731	C	0.899737	0.445341	0.652785
	N2732	N	0.871590	0.429912	0.640714
	O2733	O	0.917982	0.440447	0.655749
	O2734	O	0.830073	0.433213	0.626889
	C2735	C	0.880494	0.528172	0.654735
	C2736	C	0.842782	0.493749	0.633611
	N2737	N	0.851124	0.517997	0.639761
	O2738	O	0.819000	0.481089	0.620857
	O2739	O	0.892971	0.548138	0.663215
	C2740	C	0.954269	0.493679	0.688206
	C2741	C	0.946510	0.528216	0.687135
	N2742	N	0.967015	0.517719	0.696677
	O2743	O	0.951777	0.548365	0.691697
	O2744	O	0.967066	0.480279	0.694858
	C2745	C	0.537884	0.127521	0.573604
	C2746	C	0.560533	0.148899	0.583608
	C2747	C	0.584909	0.155071	0.579681
	C2748	C	0.586011	0.140323	0.564695
	C2749	C	0.563356	0.118404	0.555509
	C2750	C	0.539554	0.111739	0.560666
	C2751	C	0.552355	0.162080	0.595762
	C2752	C	0.514398	0.126508	0.578332
	N2753	N	0.524076	0.148202	0.590683
	O2754	O	0.491217	0.111537	0.572111
	O2755	O	0.565815	0.180388	0.608059
	C2756	C	0.614227	0.151415	0.563390
	C2757	C	0.612307	0.176673	0.587459
	N2758	N	0.629244	0.172847	0.578168
	O2759	O	0.619590	0.194347	0.598710
	O2760	O	0.623335	0.144577	0.551947
	C2761	C	0.519443	0.086763	0.550647
	C2762	C	0.558575	0.099185	0.539032
	N2763	N	0.532388	0.079637	0.539127
	O2764	O	0.573003	0.099693	0.526899
	O2765	O	0.496967	0.074002	0.552721
	C2766	C	0.414701	0.531224	0.619907
	C2767	C	0.391447	0.508748	0.624485
	C2768	C	0.373183	0.508631	0.635293
	C2769	C	0.379578	0.529625	0.645830
	C2770	C	0.403707	0.551850	0.643019
	C2771	C	0.420455	0.553302	0.628085
	C2772	C	0.392585	0.486069	0.621142
	C2773	C	0.430802	0.524344	0.610806
	N2774	N	0.417351	0.495978	0.614912
	O2775	O	0.451202	0.538446	0.602079
	O2776	O	0.376914	0.463031	0.624660
	C2777	C	0.359258	0.520123	0.665084
	C2778	C	0.346582	0.487641	0.640709
	N2779	N	0.339794	0.494879	0.660606
	O2780	O	0.332723	0.468611	0.629904
	O2781	O	0.359322	0.529862	0.683604
	C2782	C	0.444798	0.578663	0.629054
	C2783	C	0.416966	0.576432	0.654255
	N2784	N	0.441903	0.591316	0.646053
	O2785	O	0.409045	0.582947	0.667838
	O2786	O	0.463620	0.587457	0.618147
	C2787	C	0.158751	0.588610	0.798042
	C2788	C	0.181165	0.584722	0.801934
	C2789	C	0.176527	0.565693	0.788476
	C2790	C	0.149400	0.551431	0.770254
	C2791	C	0.126939	0.555137	0.766879
	C2792	C	0.131587	0.573448	0.781173
	C2793	C	0.207077	0.605000	0.818514
	C2794	C	0.169642	0.610125	0.814330
	N2795	N	0.198668	0.620024	0.824590
	O2796	O	0.157073	0.618457	0.817844
	O2797	O	0.230560	0.609284	0.824623
	C2798	C	0.150354	0.532542	0.759065
	C2799	C	0.195962	0.556177	0.789703
	N2800	N	0.178806	0.535801	0.772256
	O2801	O	0.220886	0.563060	0.802673
	O2802	O	0.131723	0.517054	0.742244
	C2803	C	0.103835	0.573238	0.773273
	C2804	C	0.096146	0.542282	0.749732
	N2805	N	0.083373	0.554319	0.753850
	O2806	O	0.083467	0.524790	0.735837
	O2807	O	0.098632	0.585498	0.781808
	C2808	C	0.471699	0.918937	0.620454
	C2809	C	0.491185	0.914306	0.618583
	C2810	C	0.495381	0.886294	0.643522
	C2811	C	0.480040	0.863161	0.670008
	C2812	C	0.460575	0.867948	0.672330
	C2813	C	0.456608	0.895805	0.647760
	C2814	C	0.504971	0.943142	0.588708
	C2815	C	0.472879	0.950874	0.593133
	N2816	N	0.493384	0.964374	0.575099
	O2817	O	0.460186	0.963805	0.587726
	O2818	O	0.522669	0.948263	0.578210
	C2819	C	0.489965	0.836379	0.693927
	C2820	C	0.514622	0.875000	0.647804
	N2821	N	0.511469	0.845215	0.680349
	O2822	O	0.529562	0.887326	0.627687
	O2823	O	0.482281	0.811914	0.719629
	C2824	C	0.434976	0.894850	0.656501
	C2825	C	0.440974	0.847921	0.697077
	N2826	N	0.426334	0.865537	0.686292
	O2827	O	0.437266	0.822195	0.721257
	O2828	O	0.426023	0.914147	0.642683
	C2829	C	0.541035	0.435481	0.660956
	C2830	C	0.542299	0.418885	0.649312
	C2831	C	0.521895	0.393108	0.650751
	C2832	C	0.501294	0.384193	0.665016
	C2833	C	0.499639	0.401482	0.675162
	C2834	C	0.519108	0.427308	0.672192
	C2835	C	0.566739	0.434932	0.635062
	C2836	C	0.565050	0.461371	0.657395
	N2837	N	0.579695	0.460118	0.641331
	O2838	O	0.571860	0.479985	0.666550
	O2839	O	0.574531	0.428822	0.620778
	C2840	C	0.483173	0.355676	0.665750
	C2841	C	0.514848	0.372248	0.635355
	N2842	N	0.491370	0.350128	0.645447
	O2843	O	0.525146	0.373817	0.615655
	O2844	O	0.465381	0.339854	0.680993
	C2845	C	0.510305	0.442766	0.679312
	C2846	C	0.477447	0.399636	0.683707
	N2847	N	0.484145	0.425979	0.683091
	O2848	O	0.457358	0.380615	0.689551
	O2849	O	0.521485	0.465327	0.680572
	F2850	F	-0.008300	0.560252	0.633601
	C2851	C	0.008047	0.549991	0.678653
	C2852	C	0.036874	0.559144	0.692867
	F2853	F	0.048122	0.578415	0.661418
	C2854	C	0.054274	0.548029	0.739871
	C2855	C	0.042216	0.529071	0.772384
	F2856	F	0.058659	0.519431	0.817393
	C2857	C	0.013349	0.520054	0.758142
	F2858	F	0.001987	0.501866	0.789442
	C2859	C	-0.003989	0.529634	0.711164
	F2860	F	0.546430	-0.016169	0.628462
	C2861	C	0.531236	0.003217	0.589956
	C2862	C	0.540470	0.031763	0.581402
	F2863	F	0.564544	0.039511	0.611754
	C2864	C	0.524500	0.052235	0.542255
	C2865	C	0.500161	0.043943	0.509861
	F2866	F	0.485122	0.063364	0.471220
	C2867	C	0.491184	0.015388	0.518059
	F2868	F	0.468197	0.007784	0.486588
	C2869	C	0.505693	-0.005642	0.559651
	F2870	F	0.459060	0.479900	0.702011
	C2871	C	0.453523	0.468856	0.677013
	C2872	C	0.469182	0.450292	0.695280
	F2873	F	0.489161	0.443360	0.737728
	C2874	C	0.464352	0.439086	0.669491
	C2875	C	0.441589	0.444639	0.626783
	F2876	F	0.434935	0.432128	0.603125
	C2877	C	0.425946	0.463342	0.608332
	F2878	F	0.404825	0.468976	0.566997
	C2879	C	0.432303	0.476389	0.632653
	C2880	C	0.011116	0.018980	0.836447
	C2881	C	-0.017020	0.007719	0.828724
	C2882	C	-0.031258	-0.016848	0.821952
	C2883	C	-0.017465	-0.029540	0.821822
	C2884	C	0.010763	-0.017552	0.828025
	C2885	C	0.025026	0.006346	0.835906
	C2886	C	-0.026464	0.025990	0.829876
	C2887	C	0.020574	0.045223	0.842013
	N2888	N	-0.003185	0.048825	0.836255
	O2889	O	0.043264	0.060920	0.849841
	O2890	O	-0.048745	0.023160	0.826510
	C2891	C	-0.038131	-0.055140	0.813564
	C2892	C	-0.060779	-0.034390	0.815490
	N2893	N	-0.063629	-0.057264	0.810989
	O2894	O	-0.079105	-0.031117	0.814849
	O2895	O	-0.034779	-0.071280	0.809705
	C2896	C	0.054960	0.013503	0.843670
	C2897	C	0.030971	-0.025920	0.829014
	N2898	N	0.057460	-0.007169	0.840425
	O2899	O	0.026711	-0.043803	0.820377
	O2900	O	0.073939	0.032693	0.850887
	F2901	F	-0.028795	0.140243	0.743927
	C2902	C	-0.017208	0.119409	0.785526
	C2903	C	-0.015808	0.095532	0.789387
	F2904	F	-0.025371	0.094050	0.751234
	C2905	C	-0.004347	0.073109	0.832658
	C2906	C	0.005765	0.075352	0.871920
	F2907	F	0.016252	0.053921	0.913732
	C2908	C	0.005047	0.099629	0.867917
	F2909	F	0.015674	0.101641	0.905965
	C2910	C	-0.006620	0.121962	0.824682
	F2911	F	0.883635	0.847785	0.883072
	C2912	C	0.885332	0.872533	0.844746
	C2913	C	0.909719	0.894183	0.847267
	F2914	F	0.931318	0.890055	0.888025
	C2915	C	0.912029	0.920272	0.807681
	C2916	C	0.889214	0.923993	0.765438
	F2917	F	0.890829	0.948563	0.726915
	C2918	C	0.864789	0.902394	0.762944
	F2919	F	0.843308	0.906531	0.722094
	C2920	C	0.862440	0.876373	0.802564
	F2921	F	0.139465	-0.046699	0.938614
	C2922	C	0.124238	-0.028487	0.897397
	C2923	C	0.099003	-0.027722	0.890289
	F2924	F	0.090157	-0.045365	0.924697
	C2925	C	0.082850	-0.008562	0.847700
	C2926	C	0.092854	0.009905	0.812640
	F2927	F	0.077810	0.028449	0.771721
	C2928	C	0.118117	0.009223	0.819793
	F2929	F	0.127373	0.027622	0.785819
	C2930	C	0.133958	-0.010423	0.862007
	C2931	C	0.022247	0.212985	0.833636
	C2932	C	0.009845	0.224638	0.838042
	C2933	C	-0.017865	0.212614	0.834126
	C2934	C	-0.033047	0.188509	0.826813
	C2935	C	-0.020294	0.176118	0.823668
	C2936	C	0.007010	0.188580	0.826299
	C2937	C	0.031028	0.249287	0.848178
	C2938	C	0.051505	0.231192	0.837853
	N2939	N	0.055566	0.252508	0.847058
	O2940	O	0.068794	0.229132	0.834446
	O2941	O	0.029033	0.263661	0.857114
	C2942	C	-0.062265	0.181725	0.822123
	C2943	C	-0.035965	0.220967	0.837282
	N2944	N	-0.062777	0.202642	0.827505
	O2945	O	-0.030152	0.239168	0.846542
	O2946	O	-0.082107	0.163121	0.814674
	C2947	C	0.014972	0.170794	0.821927
	C2948	C	-0.030052	0.148914	0.820371
	N2949	N	-0.007581	0.146475	0.820825
	O2950	O	-0.051908	0.131522	0.818326
	O2951	O	0.035533	0.175413	0.818411
	C2952	C	0.766320	0.810883	0.798937
	C2953	C	0.750768	0.787799	0.789127
	C2954	C	0.762774	0.776114	0.783716
	C2955	C	0.789474	0.788917	0.784178
	C2956	C	0.804086	0.814227	0.788919
	C2957	C	0.793107	0.824550	0.798032
	C2958	C	0.722823	0.777879	0.790398
	C2959	C	0.749874	0.813849	0.813061
	N2960	N	0.723802	0.793225	0.807161
	O2961	O	0.756935	0.828774	0.829201
	O2962	O	0.702733	0.760801	0.778604
	C2963	C	0.796495	0.771000	0.778496
	C2964	C	0.752884	0.748306	0.782505
	N2965	N	0.774202	0.745971	0.780437
	O2966	O	0.731549	0.730348	0.783862
	O2967	O	0.816020	0.775771	0.772345
	C2968	C	0.814497	0.850353	0.805034
	C2969	C	0.832842	0.832552	0.790710
	N2970	N	0.837812	0.854186	0.799789
	O2971	O	0.849372	0.830159	0.786081
	O2972	O	0.813396	0.865410	0.813739
	C2973	C	0.202386	-0.040204	0.869058
	C2974	C	0.227728	-0.025688	0.864225
	C2975	C	0.240252	0.002302	0.859898
	C2976	C	0.227907	0.015468	0.861766
	C2977	C	0.201914	0.001167	0.865447
	C2978	C	0.189006	-0.026243	0.868206
	C2979	C	0.236970	-0.044926	0.864823
	C2980	C	0.194517	-0.069572	0.873026
	N2981	N	0.216471	-0.071201	0.871003
	O2982	O	0.174325	-0.088779	0.877504
	O2983	O	0.257237	-0.040265	0.860524
	C2984	C	0.246160	0.045284	0.855718
	C2985	C	0.266664	0.022895	0.852844
	N2986	N	0.269111	0.048396	0.850344
	O2987	O	0.282930	0.019860	0.848546
	O2988	O	0.242829	0.063749	0.854569
	C2989	C	0.160956	-0.035072	0.868891
	C2990	C	0.183574	0.009696	0.868047
	N2991	N	0.158687	-0.012362	0.867997
	O2992	O	0.188125	0.030105	0.871431
	O2993	O	0.142862	-0.056443	0.869224
	F2994	F	0.913088	0.244110	0.739801
	C2995	C	0.902753	0.232210	0.770723
	C2996	C	0.882140	0.242838	0.759162
	F2997	F	0.872647	0.264647	0.717242
	C2998	C	0.871247	0.231169	0.790927
	C2999	C	0.880480	0.207420	0.833843
	F3000	F	0.869378	0.195137	0.863922
	C3001	C	0.901119	0.196678	0.845442
	F3002	F	0.909618	0.173931	0.886435
	C3003	C	0.913215	0.209615	0.814573
	F3004	F	0.103999	0.237099	0.926338
	C3005	C	0.103523	0.265175	0.898082
	C3006	C	0.125768	0.285871	0.910844
	F3007	F	0.147675	0.277570	0.950935
	C3008	C	0.125270	0.315266	0.882569
	C3009	C	0.102748	0.323555	0.839798
	F3010	F	0.101923	0.351566	0.811827
	C3011	C	0.081042	0.302942	0.826306
	F3012	F	0.060292	0.311358	0.784526
	C3013	C	0.080365	0.273375	0.856388
	F3014	F	0.710004	0.736764	0.871036
	C3015	C	0.696908	0.756033	0.854941
	C3016	C	0.676584	0.746866	0.870001
	F3017	F	0.671542	0.719442	0.901930
	C3018	C	0.661201	0.765846	0.851862
	C3019	C	0.668510	0.794878	0.821128
	F3020	F	0.655341	0.813976	0.805244
	C3021	C	0.689323	0.804219	0.806781
	F3022	F	0.695610	0.832026	0.777028
	C3023	C	0.703628	0.784850	0.822997
	F3024	F	0.764309	0.745927	0.704075
	C3025	C	0.765296	0.720932	0.742859
	C3026	C	0.758390	0.695224	0.742960
	F3027	F	0.750780	0.695630	0.704095
	C3028	C	0.759178	0.668846	0.783354
	C3029	C	0.768682	0.669075	0.824148
	F3030	F	0.770392	0.644129	0.863344
	C3031	C	0.776058	0.694949	0.824043
	F3032	F	0.785951	0.694992	0.863510
	C3033	C	0.772910	0.721003	0.782803
	F3034	F	0.237839	0.884201	0.958088
	C3035	C	0.231773	0.883229	0.921319
	C3036	C	0.238426	0.861511	0.927638
	F3037	F	0.250684	0.841773	0.970427
	C3038	C	0.232663	0.860281	0.889725
	C3039	C	0.218616	0.880390	0.845499
	F3040	F	0.211605	0.878608	0.808897
	C3041	C	0.212314	0.902344	0.839208
	F3042	F	0.199819	0.921978	0.796586
	C3043	C	0.219376	0.904469	0.877070
	F3044	F	0.256734	0.096484	0.763500
	C3045	C	0.283412	0.096846	0.793362
	C3046	C	0.304406	0.119735	0.779088
	F3047	F	0.297684	0.141373	0.735815
	C3048	C	0.332514	0.120237	0.809184
	C3049	C	0.338924	0.097767	0.854656
	F3050	F	0.365580	0.097589	0.884312
	C3051	C	0.317862	0.075290	0.869282
	F3052	F	0.324403	0.054488	0.913224
	C3053	C	0.289891	0.073867	0.838306
	C3054	C	0.781792	0.283433	0.730999
	C3055	C	0.785399	0.262414	0.731149
	C3056	C	0.812480	0.259255	0.750031
	C3057	C	0.835396	0.276728	0.769339
	C3058	C	0.831683	0.298275	0.768413
	C3059	C	0.804921	0.301671	0.748958
	C3060	C	0.756737	0.245306	0.712525
	C3061	C	0.751078	0.281517	0.710467
	N3062	N	0.737004	0.257813	0.701012
	O3063	O	0.739457	0.296080	0.703727
	O3064	O	0.750564	0.224580	0.708649
	C3065	C	0.861319	0.267854	0.788257
	C3066	C	0.823104	0.238965	0.755187
	N3067	N	0.852540	0.244491	0.779978
	O3068	O	0.810513	0.221947	0.740410
	O3069	O	0.885281	0.277793	0.806734
	C3070	C	0.806808	0.325057	0.754484
	C3071	C	0.851845	0.319611	0.787170
	N3072	N	0.835511	0.335100	0.777496
	O3073	O	0.876785	0.323870	0.806621
	O3074	O	0.788617	0.334361	0.742953
	C3075	C	0.167767	0.369648	0.925391
	C3076	C	0.187207	0.369430	0.917435
	C3077	C	0.213639	0.388337	0.924512
	C3078	C	0.220725	0.406479	0.941010
	C3079	C	0.200251	0.408120	0.945558
	C3080	C	0.173919	0.389874	0.937723
	C3081	C	0.173530	0.348012	0.899425
	C3082	C	0.141333	0.348111	0.913790
	N3083	N	0.145975	0.335897	0.898145
	O3084	O	0.120039	0.341200	0.917329
	O3085	O	0.183081	0.341702	0.887906
	C3086	C	0.249448	0.425204	0.942693
	C3087	C	0.236739	0.396348	0.911895
	N3088	N	0.257482	0.419034	0.922727
	O3089	O	0.237691	0.387545	0.893064
	O3090	O	0.263606	0.442361	0.957401
	C3091	C	0.155479	0.399162	0.938929
	C3092	C	0.199733	0.429256	0.953097
	N3093	N	0.171794	0.424227	0.945253
	O3094	O	0.218351	0.447705	0.963028
	O3095	O	0.131599	0.388962	0.934756
	C3096	C	0.594216	0.727830	0.868226
	C3097	C	0.603753	0.749097	0.880282
	C3098	C	0.586507	0.752441	0.888988
	C3099	C	0.561098	0.732957	0.889632
	C3100	C	0.551931	0.710886	0.879038
	C3101	C	0.568010	0.708850	0.866987
	C3102	C	0.632621	0.765311	0.880262
	C3103	C	0.614783	0.732606	0.853400
	N3104	N	0.637691	0.755087	0.862060
	O3105	O	0.612598	0.721481	0.834894
	O3106	O	0.649086	0.782824	0.893903
	C3107	C	0.547027	0.742277	0.898631
	C3108	C	0.588887	0.775744	0.895232
	N3109	N	0.563749	0.769316	0.898188
	O3110	O	0.607400	0.796600	0.896591
	O3111	O	0.525927	0.730608	0.905167
	C3112	C	0.552031	0.684542	0.854460
	C3113	C	0.525512	0.687671	0.875814
	N3114	N	0.526450	0.673030	0.859719
	O3115	O	0.506680	0.681655	0.884691
	O3116	O	0.558616	0.675917	0.842036
	C3117	C	0.730848	0.569970	0.751370
	C3118	C	0.752764	0.590575	0.764502
	C3119	C	0.747790	0.608455	0.769450
	C3120	C	0.721114	0.604853	0.762926
	C3121	C	0.699136	0.583621	0.750662
	C3122	C	0.703971	0.566362	0.744694
	C3123	C	0.779356	0.587063	0.774573
	C3124	C	0.742230	0.554500	0.748208
	N3125	N	0.771656	0.564728	0.764729
	O3126	O	0.730192	0.537539	0.733425
	O3127	O	0.803038	0.599469	0.788806
	C3128	C	0.722191	0.626722	0.770849
	C3129	C	0.767024	0.632170	0.782980
	N3130	N	0.750285	0.642786	0.782022
	O3131	O	0.791726	0.641434	0.793041
	O3132	O	0.704022	0.630988	0.769029
	C3133	C	0.677290	0.544660	0.734371
	C3134	C	0.669501	0.572575	0.746656
	N3135	N	0.657728	0.548578	0.738241
	O3136	O	0.657353	0.580835	0.750993
	O3137	O	0.672370	0.526554	0.725598
	C3138	C	0.270214	0.823597	0.895880
	C3139	C	0.246444	0.801733	0.900553
	C3140	C	0.243154	0.775618	0.904263
	C3141	C	0.263385	0.772214	0.902142
	C3142	C	0.286636	0.794764	0.895320
	C3143	C	0.290290	0.820237	0.892854
	C3144	C	0.228658	0.812218	0.901205
	C3145	C	0.268348	0.848772	0.892763
	N3146	N	0.242771	0.840919	0.895419
	O3147	O	0.284575	0.871626	0.888826
	O3148	O	0.206883	0.800016	0.905705
	C3149	C	0.254955	0.742618	0.907184
	C3150	C	0.221000	0.747732	0.911355
	N3151	N	0.229351	0.728849	0.912591
	O3152	O	0.200287	0.741216	0.916063
	O3153	O	0.267088	0.731626	0.907497
	C3154	C	0.317663	0.839578	0.888140
	C3155	C	0.310723	0.797302	0.890130
	N3156	N	0.329171	0.824240	0.887633
	O3157	O	0.314306	0.781222	0.886425
	O3158	O	0.328717	0.863365	0.885029
	C3159	C	0.419944	0.225959	0.739801
	C3160	C	0.400869	0.215870	0.757661
	C3161	C	0.384616	0.187445	0.768587
	C3162	C	0.388526	0.169069	0.763438
	C3163	C	0.408835	0.178914	0.747374
	C3164	C	0.424300	0.207261	0.735685
	C3165	C	0.405101	0.238761	0.766682
	C3166	C	0.434444	0.256741	0.731280
	N3167	N	0.425921	0.262647	0.750822
	O3168	O	0.450108	0.273684	0.711811
	O3169	O	0.394852	0.237470	0.786194
	C3170	C	0.368551	0.140254	0.778404
	C3171	C	0.362628	0.170793	0.788164
	N3172	N	0.353709	0.142604	0.793181
	O3173	O	0.353737	0.178914	0.798075
	O3174	O	0.364754	0.118856	0.778202
	C3175	C	0.445870	0.211673	0.723431
	C3176	C	0.420436	0.164029	0.743081
	N3177	N	0.443493	0.184786	0.730305
	O3178	O	0.413150	0.139819	0.748980
	O3179	O	0.462964	0.233120	0.711012
	F3180	F	0.833276	0.324242	0.853736
	C3181	C	0.843544	0.351318	0.826905
	C3182	C	0.851614	0.373535	0.836194
	F3183	F	0.848597	0.367851	0.871351
	C3184	C	0.862834	0.401949	0.809145
	C3185	C	0.865161	0.407755	0.771717
	F3186	F	0.875804	0.434761	0.745332
	C3187	C	0.856441	0.385656	0.761739
	F3188	F	0.858338	0.391670	0.725337
	C3189	C	0.845639	0.357156	0.789207
	F3190	F	0.691418	0.268412	0.614357
	C3191	C	0.686402	0.250428	0.652780
	C3192	C	0.658939	0.238315	0.649628
	F3193	F	0.637799	0.245421	0.608195
	C3194	C	0.653330	0.218764	0.689523
	C3195	C	0.675800	0.212855	0.732508
	F3196	F	0.670879	0.194941	0.771089
	C3197	C	0.703118	0.225150	0.735634
	F3198	F	0.724290	0.218874	0.777176
	C3199	C	0.708831	0.244063	0.695869
	F3200	F	0.297103	0.510034	0.819722
	C3201	C	0.298381	0.482536	0.852238
	C3202	C	0.279182	0.465833	0.872883
	F3203	F	0.259908	0.477614	0.859842
	C3204	C	0.279269	0.436778	0.906267
	C3205	C	0.300256	0.425475	0.920212
	F3206	F	0.301688	0.398150	0.953484
	C3207	C	0.319399	0.442125	0.899455
	F3208	F	0.338506	0.430071	0.912728
	C3209	C	0.318753	0.470950	0.864886
	F3210	F	0.141839	0.465186	0.858802
	C3211	C	0.148140	0.464329	0.897322
	C3212	C	0.141314	0.484711	0.894045
	F3213	F	0.128535	0.504807	0.852594
	C3214	C	0.147475	0.484358	0.933614
	C3215	C	0.159177	0.461932	0.976500
	F3216	F	0.163853	0.459681	1.015181
	C3217	C	0.165843	0.441570	0.979668
	F3218	F	0.176462	0.420069	1.020877
	C3219	C	0.161556	0.443077	0.940426
	F3220	F	0.477478	0.686862	0.781941
	C3221	C	0.479418	0.659156	0.808384
	C3222	C	0.456892	0.638101	0.797018
	F3223	F	0.433472	0.645637	0.759904
	C3224	C	0.458584	0.609089	0.823832
	C3225	C	0.483464	0.601764	0.862162
	F3226	F	0.486049	0.574362	0.887009
	C3227	C	0.505682	0.622661	0.874288
	F3228	F	0.528985	0.615024	0.911666
	C3229	C	0.504015	0.651688	0.847422
	F3230	F	0.583367	0.790534	0.958180
	C3231	C	0.561836	0.799342	0.917943
	C3232	C	0.548874	0.817766	0.907427
	F3233	F	0.558019	0.826241	0.937966
	C3234	C	0.526580	0.827783	0.865109
	C3235	C	0.518487	0.820051	0.832664
	F3236	F	0.498628	0.831176	0.790788
	C3237	C	0.531247	0.801306	0.843520
	F3238	F	0.523359	0.794074	0.812199
	C3239	C	0.552571	0.790014	0.886841
	F3240	F	0.667868	0.499309	0.821606
	C3241	C	0.641281	0.501382	0.793289
	C3242	C	0.620013	0.479179	0.807197
	F3243	F	0.626171	0.455796	0.848473
	C3244	C	0.592200	0.481310	0.778701
	C3245	C	0.586151	0.505890	0.735456
	F3246	F	0.559696	0.508613	0.708282
	C3247	C	0.607428	0.527736	0.720908
	F3248	F	0.601323	0.550785	0.679205
	C3249	C	0.635298	0.525966	0.750078
	F3250	F	0.808849	0.590667	0.723585
	C3251	C	0.809290	0.563791	0.758723
	C3252	C	0.828256	0.549491	0.774378
	F3253	F	0.846880	0.563189	0.755651
	C3254	C	0.828143	0.520896	0.809789
	C3255	C	0.809629	0.507441	0.830812
	F3256	F	0.809950	0.480437	0.865562
	C3257	C	0.791316	0.522068	0.816220
	F3258	F	0.774293	0.509226	0.837568
	C3259	C	0.790598	0.550254	0.779458
	F3260	F	0.334705	0.864499	0.804187
	C3261	C	0.357218	0.854788	0.841570
	C3262	C	0.382404	0.864702	0.837651
	F3263	F	0.384015	0.884361	0.796505
	C3264	C	0.406082	0.854404	0.876275
	C3265	C	0.403972	0.834346	0.919058
	F3266	F	0.426612	0.825056	0.956603
	C3267	C	0.378681	0.824200	0.922887
	F3268	F	0.376994	0.804580	0.963983
	C3269	C	0.354987	0.834411	0.884196
	F3270	F	0.245874	0.680627	0.996868
	C3271	C	0.224195	0.676406	0.961048
	C3272	C	0.211146	0.648348	0.966484
	F3273	F	0.220279	0.625770	1.007429
	C3274	C	0.188217	0.643395	0.929698
	C3275	C	0.179156	0.667316	0.887055
	F3276	F	0.157635	0.663074	0.851170
	C3277	C	0.192009	0.695353	0.881743
	F3278	F	0.182151	0.717710	0.841118
	C3279	C	0.214895	0.700331	0.918563
	F3280	F	0.491763	0.170467	0.809627
	C3281	C	0.489836	0.175112	0.771062
	C3282	C	0.512785	0.175424	0.770240
	F3283	F	0.537002	0.172687	0.807067
	C3284	C	0.510639	0.178093	0.731487
	C3285	C	0.485325	0.181861	0.692917
	F3286	F	0.483021	0.185141	0.655068
	C3287	C	0.462479	0.181777	0.693716
	F3288	F	0.437998	0.183503	0.657688
	C3289	C	0.464680	0.179480	0.732161
	F3290	F	0.400917	0.304133	0.719659
	C3291	C	0.427694	0.304843	0.749083
	C3292	C	0.442118	0.325198	0.765037
	F3293	F	0.428797	0.343530	0.751152
	C3294	C	0.470262	0.326657	0.795517
	C3295	C	0.483460	0.306982	0.809807
	F3296	F	0.510132	0.307327	0.839733
	C3297	C	0.469190	0.287023	0.793211
	F3298	F	0.482909	0.269382	0.806199
	C3299	C	0.440884	0.285093	0.763545
	C3300	C	0.899047	0.452237	0.858585
	C3301	C	0.872220	0.457086	0.833124
	C3302	C	0.866170	0.476087	0.834340
	C3303	C	0.886881	0.489620	0.861607
	C3304	C	0.913755	0.484403	0.887726
	C3305	C	0.919856	0.465863	0.886147
	C3306	C	0.854546	0.439526	0.807543
	C3307	C	0.899438	0.431110	0.850801
	N3308	N	0.871987	0.423965	0.820367
	O3309	O	0.918321	0.421372	0.865914
	O3310	O	0.830502	0.437918	0.781223
	C3311	C	0.874436	0.507719	0.857669
	C3312	C	0.840069	0.486600	0.809547
	N3313	N	0.846641	0.505901	0.824664
	O3314	O	0.817672	0.480843	0.782145
	O3315	O	0.884530	0.520690	0.878628
	C3316	C	0.950483	0.466178	0.914800
	C3317	C	0.940147	0.497173	0.917451
	N3318	N	0.961547	0.485448	0.932636
	O3319	O	0.943416	0.514288	0.926785
	O3320	O	0.964197	0.453750	0.921420
	C3321	C	0.551383	0.145883	0.736844
	C3322	C	0.565969	0.174533	0.719886
	C3323	C	0.587562	0.181675	0.708375
	C3324	C	0.593152	0.160312	0.712177
	C3325	C	0.578312	0.131583	0.729090
	C3326	C	0.557668	0.124381	0.741861
	C3327	C	0.553340	0.192095	0.717239
	C3328	C	0.530194	0.143744	0.747561
	N3329	N	0.531490	0.172124	0.733647
	O3330	O	0.514483	0.122828	0.764753
	O3331	O	0.559112	0.217560	0.704110
	C3332	C	0.617472	0.173274	0.699370
	C3333	C	0.608377	0.209440	0.692320
	N3334	N	0.626144	0.202705	0.688569
	O3335	O	0.610968	0.232989	0.684778
	O3336	O	0.628710	0.161652	0.699161
	C3337	C	0.546085	0.092255	0.760350
	C3338	C	0.579274	0.104657	0.735574
	N3339	N	0.559685	0.081727	0.755173
	O3340	O	0.592540	0.101790	0.725451
	O3341	O	0.528861	0.077032	0.776791
	C3342	C	0.406722	0.526205	0.787347
	C3343	C	0.384759	0.502744	0.796282
	C3344	C	0.368392	0.502027	0.811395
	C3345	C	0.375290	0.523908	0.820456
	C3346	C	0.398493	0.546967	0.813740
	C3347	C	0.413602	0.548395	0.796123
	C3348	C	0.385597	0.480138	0.792171
	C3349	C	0.421669	0.519924	0.775405
	N3350	N	0.409387	0.490954	0.782561
	O3351	O	0.440657	0.534803	0.762933
	O3352	O	0.370439	0.456730	0.797130
	C3353	C	0.356665	0.514886	0.842420
	C3354	C	0.344034	0.479455	0.823999
	N3355	N	0.338276	0.487948	0.843718
	O3356	O	0.331439	0.458147	0.818941
	O3357	O	0.357306	0.526762	0.858334
	C3358	C	0.437337	0.574631	0.793206
	C3359	C	0.412856	0.572060	0.824242
	N3360	N	0.436302	0.587535	0.811827
	O3361	O	0.406956	0.578251	0.840935
	O3362	O	0.454602	0.583734	0.778882
	C3363	C	0.138174	0.572297	0.951636
	C3364	C	0.152951	0.569262	0.938491
	C3365	C	0.145327	0.543759	0.936671
	C3366	C	0.122754	0.522146	0.947244
	C3367	C	0.108110	0.525322	0.960699
	C3368	C	0.115654	0.550365	0.962645
	C3369	C	0.175388	0.596660	0.928494
	C3370	C	0.150948	0.600800	0.952053
	N3371	N	0.172700	0.614894	0.936647
	O3372	O	0.145197	0.610634	0.963815
	O3373	O	0.192811	0.603017	0.916492
	C3374	C	0.119418	0.497183	0.943854
	C3375	C	0.156711	0.533480	0.924539
	N3376	N	0.140825	0.504818	0.931307
	O3377	O	0.175074	0.545810	0.911061
	O3378	O	0.102691	0.474447	0.950588
	C3379	C	0.095799	0.548152	0.976419
	C3380	C	0.082376	0.506732	0.970989
	N3381	N	0.075643	0.521796	0.979292
	O3382	O	0.068780	0.483836	0.971227
	O3383	O	0.095971	0.564790	0.983592
	C3384	C	0.489579	0.918500	0.833788
	C3385	C	0.508343	0.914410	0.829533
	C3386	C	0.506721	0.886792	0.840641
	C3387	C	0.486092	0.863490	0.855222
	C3388	C	0.467436	0.867536	0.860317
	C3389	C	0.469497	0.894879	0.850265
	C3390	C	0.527632	0.943179	0.812079
	C3391	C	0.496043	0.950104	0.818924
	N3392	N	0.519236	0.963681	0.806667
	O3393	O	0.484339	0.962715	0.816256
	O3394	O	0.546482	0.949089	0.803358
	C3395	C	0.490024	0.836932	0.865036
	C3396	C	0.523864	0.876371	0.838970
	N3397	N	0.513351	0.846129	0.855219
	O3398	O	0.542791	0.889722	0.826476
	O3399	O	0.477048	0.812350	0.878681
	C3400	C	0.447504	0.892834	0.859486
	C3401	C	0.442661	0.847392	0.873305
	N3402	N	0.431431	0.864024	0.871758
	O3403	O	0.433002	0.822258	0.882990
	O3404	O	0.443899	0.910744	0.859274
	C3405	C	0.536106	0.434220	0.823256
	C3406	C	0.536535	0.416722	0.812296
	C3407	C	0.516476	0.390669	0.815876
	C3408	C	0.496319	0.382311	0.830567
	C3409	C	0.495525	0.400324	0.840463
	C3410	C	0.515136	0.426273	0.836438
	C3411	C	0.558667	0.432614	0.793275
	C3412	C	0.558616	0.461280	0.813534
	N3413	N	0.570952	0.459338	0.794518
	O3414	O	0.565702	0.481317	0.819691
	O3415	O	0.565116	0.425383	0.778667
	C3416	C	0.477514	0.354068	0.830364
	C3417	C	0.509223	0.369797	0.800566
	N3418	N	0.485473	0.348340	0.809832
	O3419	O	0.519827	0.370973	0.781665
	O3420	O	0.459376	0.338612	0.844816
	C3421	C	0.506935	0.442440	0.843339
	C3422	C	0.473475	0.399594	0.847970
	N3423	N	0.480580	0.426244	0.846737
	O3424	O	0.452988	0.381103	0.853031
	O3425	O	0.518765	0.464814	0.845232
	F3426	F	-0.015216	0.541225	0.880821
	C3427	C	0.001754	0.524398	0.921324
	C3428	C	0.030340	0.533612	0.933062
	F3429	F	0.040581	0.559253	0.903683
	C3430	C	0.048300	0.515828	0.974432
	C3431	C	0.037396	0.490387	1.006396
	F3432	F	0.054577	0.474619	1.048065
	C3433	C	0.008665	0.481035	0.994446
	F3434	F	-0.001670	0.456243	1.024573
	C3435	C	-0.009505	0.497128	0.950535
	F3436	F	0.564778	-0.016880	0.869618
	C3437	C	0.554108	0.002579	0.825578
	C3438	C	0.564177	0.031935	0.812812
	F3439	F	0.584199	0.040698	0.844636
	C3440	C	0.553205	0.052479	0.766803
	C3441	C	0.533745	0.043229	0.733253
	F3442	F	0.524950	0.062887	0.688724
	C3443	C	0.523382	0.013844	0.746127
	F3444	F	0.504442	0.005099	0.714006
	C3445	C	0.532497	-0.006742	0.792704
	F3446	F	0.452329	0.476319	0.868410
	C3447	C	0.447461	0.466011	0.842895
	C3448	C	0.464485	0.449094	0.859998
	F3449	F	0.484656	0.442252	0.902410
	C3450	C	0.460800	0.439470	0.832978
	C3451	C	0.438426	0.445614	0.789691
	F3452	F	0.433755	0.435741	0.763754
	C3453	C	0.421074	0.462125	0.772913
	F3454	F	0.400169	0.468009	0.731294
	C3455	C	0.425630	0.472911	0.799053
	N3456	N	0.779153	0.981037	0.252734
	N3457	N	0.776802	0.957442	0.274034
	N3458	N	0.361281	0.624890	0.751759
	N3459	N	0.372271	0.622649	0.786706
	N3460	N	0.242803	0.172695	0.419849
	N3461	N	0.250713	0.174797	0.399137
	N3462	N	0.766219	0.049659	0.209924
	N3463	N	0.751063	0.031836	0.225025
	N3464	N	0.973884	0.320141	0.090052
	N3465	N	0.953579	0.307564	0.092788
	N3466	N	0.091561	0.904521	0.447903
	N3467	N	0.108616	0.922096	0.454969
	N3468	N	0.578468	0.909435	0.231502
	N3469	N	0.576589	0.887235	0.259730
	N3470	N	0.625483	0.862030	0.941976
	N3471	N	0.615625	0.875019	0.938166
	N3472	N	0.260806	0.561842	0.750997
	N3473	N	0.252169	0.580655	0.719548
	N3474	N	0.733833	0.454502	0.937404
	N3475	N	0.714268	0.442266	0.920848
	N3476	N	0.216459	0.168281	0.807106
	N3477	N	0.206483	0.178287	0.808941
	N3478	N	0.319065	0.240055	0.464182
	N3479	N	0.307348	0.240366	0.430516
	N3480	N	0.864500	0.933128	0.501900
	N3481	N	0.875829	0.930547	0.537089
	N3482	N	0.985156	0.667937	0.950392
	N3483	N	0.979748	0.686698	0.940382
	N3484	N	0.562349	0.332269	0.463108
	N3485	N	0.581049	0.344892	0.479976
	N3486	N	0.733438	0.394852	0.460822
	N3487	N	0.741375	0.406347	0.434049
	N3488	N	0.957065	0.976109	0.919289
	N3489	N	0.973800	0.971138	0.922961
	N3490	N	0.331146	0.700731	0.707183
	N3491	N	0.315383	0.710077	0.672132
	N3492	N	0.847772	0.104679	0.346249
	N3493	N	0.834384	0.106143	0.354769
	N3494	N	0.748616	0.120136	0.456909
	N3495	N	0.740252	0.099022	0.481049
	N3496	N	0.333709	0.582928	0.923896
	N3497	N	0.340075	0.605607	0.916276
	N3498	N	0.166887	0.071122	0.037406
	N3499	N	0.179487	0.072014	0.070240
	N3500	N	0.887216	0.732453	0.096875
	N3501	N	0.897368	0.742459	0.073600
	N3502	N	0.246504	0.260683	0.743896
	N3503	N	0.242471	0.271359	0.753560
	N3504	N	0.976991	0.362291	0.420992
	N3505	N	0.979421	0.357317	0.401388
	N3506	N	0.336725	0.023160	0.744035
	N3507	N	0.315720	0.012749	0.726752
	N3508	N	0.884989	0.103415	0.826744
	N3509	N	0.865301	0.087033	0.824423
	N3510	N	0.572850	0.338821	0.605425
	N3511	N	0.561710	0.328178	0.583778
	C3512	C	0.386592	0.400193	0.185645
	O3513	O	0.408275	0.401383	0.191117
	O3514	O	0.364927	0.399012	0.180207
	C3515	C	0.742575	0.288883	0.136567
	O3516	O	0.760072	0.291327	0.169470
	O3517	O	0.725094	0.286439	0.103663
	C3518	C	0.616754	0.587957	0.914094
	O3519	O	0.610416	0.563551	0.938477
	O3520	O	0.623086	0.612382	0.889711
	C3521	C	0.093286	0.858567	0.197594
	O3522	O	0.106422	0.841340	0.220384
	O3523	O	0.080143	0.875813	0.174804
	C3524	C	0.260575	0.523938	0.695753
	O3525	O	0.284300	0.526430	0.719167
	O3526	O	0.236848	0.521437	0.672305
	C3527	C	0.533318	0.531882	0.057217
	O3528	O	0.516558	0.512407	0.050810
	O3529	O	0.550061	0.551357	0.063625
	C3530	C	0.477588	0.932123	0.052992
	O3531	O	0.484728	0.918249	0.051399
	O3532	O	0.470473	0.945986	0.054620
	C3533	C	0.382570	0.927085	0.171860
	O3534	O	0.394375	0.908347	0.200573
	O3535	O	0.370772	0.945833	0.143113
	C3536	C	0.931045	0.390479	0.655230
	O3537	O	0.947734	0.376708	0.679440
	O3538	O	0.914332	0.404260	0.630985
	C3539	C	0.266496	0.284036	0.849673
	O3540	O	0.257522	0.259443	0.860479
	O3541	O	0.275463	0.308649	0.838866
	C3542	C	0.925863	0.043206	0.517382
	O3543	O	0.948824	0.055111	0.520845
	O3544	O	0.902910	0.031321	0.513918
	C3545	C	0.975950	0.276068	0.551878
	O3546	O	0.962719	0.253821	0.570027
	O3547	O	0.989146	0.298305	0.533695
	C3548	C	0.379501	0.772444	0.541522
	O3549	O	0.363794	0.783011	0.532448
	O3550	O	0.395201	0.761896	0.550597
	C3551	C	0.278586	0.351729	0.399656
	O3552	O	0.301354	0.350793	0.427295
	O3553	O	0.255817	0.352665	0.372017
	C3554	C	0.316638	0.393483	0.871112
	O3555	O	0.334111	0.382562	0.886802
	O3556	O	0.299176	0.404423	0.855422
	C3557	C	0.761193	0.261231	0.492063
	O3558	O	0.784801	0.266741	0.500584
	O3559	O	0.737603	0.255751	0.483508
	C3560	C	0.958907	0.409737	0.797304
	O3561	O	0.952743	0.431350	0.778705
	O3562	O	0.965062	0.388135	0.815868
	C3563	C	0.036663	0.438465	0.168293
	O3564	O	0.014186	0.441512	0.151079
	O3565	O	0.059123	0.435417	0.185507
	C3566	C	0.586513	0.882882	0.812163
	O3567	O	0.577710	0.858313	0.832147
	O3568	O	0.595326	0.907471	0.792178
	C3569	C	0.392535	0.390567	0.352206
	O3570	O	0.416369	0.397958	0.371152
	O3571	O	0.368700	0.383146	0.333295
	C3572	C	0.164963	0.298080	0.032834
	O3573	O	0.145569	0.287274	0.041805
	O3574	O	0.184349	0.308895	0.023829
	C3575	C	0.310016	0.388580	0.548934
	O3576	O	0.287220	0.391388	0.523339
	O3577	O	0.332797	0.385771	0.574530
	C3578	C	0.070814	0.280948	0.272857
	O3579	O	0.059013	0.276701	0.291802
	O3580	O	0.082607	0.285185	0.253946
	C3581	C	0.586356	0.372994	0.176813
	O3582	O	0.583121	0.372132	0.203482
	O3583	O	0.589557	0.373847	0.150109
	C3584	C	0.363592	0.992541	0.498852
	O3585	O	0.367264	0.970190	0.531444
	O3586	O	0.359927	1.014883	0.466295
	C3587	C	0.983189	0.599758	0.036471
	O3588	O	0.978097	0.588310	0.068301
	O3589	O	0.988299	0.611206	0.004641
	C3590	C	0.052134	0.571179	0.154023
	O3591	O	0.067913	0.570215	0.189974
	O3592	O	0.036363	0.572133	0.118106
	C3593	C	0.922120	0.816772	0.857881
	O3594	O	0.910310	0.798281	0.847733
	O3595	O	0.933904	0.835272	0.867995
	C3596	C	0.327906	0.015219	0.190702
	O3597	O	0.324316	0.037635	0.158283
	O3598	O	0.331514	-0.007188	0.223155
	C3599	C	0.921205	0.047158	0.018287
	O3600	O	0.941160	0.063564	0.011464
	O3601	O	0.901233	0.030724	0.025145
	C3602	C	0.562849	0.242121	0.092476
	O3603	O	0.542145	0.250064	0.064872
	O3604	O	0.583570	0.234178	0.120080
	C3605	C	0.924898	0.370624	0.983815
	O3606	O	0.939935	0.357574	0.997357
	O3607	O	0.909861	0.383675	0.970273
	C3608	C	0.473199	0.054748	0.370390
	O3609	O	0.464079	0.074659	0.337036
	O3610	O	0.482310	0.034819	0.403743
	C3611	C	0.272337	0.556520	0.434222
	O3612	O	0.249790	0.548837	0.432179
	O3613	O	0.294883	0.564202	0.436266
	C3614	C	0.105264	0.086464	0.887529
	O3615	O	0.115887	0.101997	0.861241
	O3616	O	0.094649	0.070942	0.913782
	C3617	C	0.518761	0.531643	0.147373
	O3618	O	0.521911	0.538512	0.115924
	O3619	O	0.515629	0.524775	0.178822
	C3620	C	0.307599	0.291850	0.229320
	O3621	O	0.317285	0.271799	0.252457
	O3622	O	0.297922	0.311891	0.206218
	C3623	C	0.609612	0.873743	0.183671
	O3624	O	0.589924	0.855022	0.186892
	O3625	O	0.629299	0.892464	0.180450
	C3626	C	0.444281	0.086862	0.147754
	O3627	O	0.460643	0.108381	0.137363
	O3628	O	0.427926	0.065333	0.158179
	C3629	C	0.659256	0.853494	0.825255
	O3630	O	0.683518	0.860468	0.839490
	O3631	O	0.635003	0.846510	0.811054
	C3632	C	0.204636	0.315700	0.395881
	O3633	O	0.220063	0.307932	0.434499
	O3634	O	0.189210	0.323478	0.357297
	C3635	C	0.810470	0.203658	0.535219
	O3636	O	0.791045	0.210082	0.500653
	O3637	O	0.829894	0.197205	0.569820
	C3638	C	0.502633	0.536814	0.376035
	O3639	O	0.523150	0.536951	0.379222
	O3640	O	0.482115	0.536677	0.372849
	C3641	C	0.481697	0.757533	0.236559
	O3642	O	0.458135	0.752119	0.214150
	O3643	O	0.505252	0.762966	0.258968
	C3644	C	0.686417	0.660810	0.284079
	O3645	O	0.707202	0.659803	0.316393
	O3646	O	0.665640	0.661797	0.251764
	C3647	C	0.381833	0.755221	0.825809
	O3648	O	0.394330	0.778991	0.811089
	O3649	O	0.369336	0.731481	0.840494
	C3650	C	0.220811	0.519960	0.585440
	O3651	O	0.200868	0.501419	0.583812
	O3652	O	0.240771	0.538502	0.587068
	C3653	C	0.363740	0.759545	0.897054
	O3654	O	0.363439	0.734909	0.919809
	O3655	O	0.364050	0.784172	0.874333
	C3656	C	0.080427	0.132626	0.181350
	O3657	O	0.056484	0.125632	0.171618
	O3658	O	0.104386	0.139590	0.191117
	C3659	C	0.595602	0.642904	0.248335
	O3660	O	0.594533	0.630872	0.233303
	O3661	O	0.596663	0.654945	0.263332
	C3662	C	0.427205	0.098557	0.871701
	O3663	O	0.436359	0.121007	0.870731
	O3664	O	0.418076	0.076127	0.872670
	C3665	C	0.369036	0.356446	0.489847
	O3666	O	0.382446	0.376870	0.469550
	O3667	O	0.355627	0.336022	0.510143
	C3668	C	0.484582	0.751821	0.760487
	O3669	O	0.506732	0.757216	0.762807
	O3670	O	0.462449	0.746425	0.758166
	C3671	C	0.776184	0.375332	0.628492
	O3672	O	0.788695	0.367457	0.625409
	O3673	O	0.763673	0.383207	0.631574
	C3674	C	0.374499	0.380750	0.687995
	O3675	O	0.391687	0.396765	0.673240
	O3676	O	0.357327	0.364736	0.702750
	C3677	C	0.534685	0.314079	0.936676
	O3678	O	0.522630	0.328892	0.926528
	O3679	O	0.546739	0.299236	0.946859
	C3680	C	0.454281	0.090761	0.804439
	O3681	O	0.441803	0.067182	0.810881
	O3682	O	0.466749	0.114321	0.797997
	C3683	C	0.622652	0.032431	0.823627
	O3684	O	0.640112	0.031866	0.858678
	O3685	O	0.605184	0.033006	0.788541
	C3686	C	0.788497	0.406230	0.023206
	O3687	O	0.811293	0.411223	0.048351
	O3688	O	0.765700	0.401207	-0.001905
	C3689	C	0.689659	0.659494	0.619971
	O3690	O	0.702321	0.656994	0.657170
	O3691	O	0.677007	0.662014	0.582773
	C3692	C	0.068086	0.420985	0.008105
	O3693	O	0.061891	0.417465	-0.021855
	O3694	O	0.074290	0.424495	0.038099
	C3695	C	0.339675	0.235007	0.613148
	O3696	O	0.322963	0.238712	0.576158
	O3697	O	0.356396	0.231293	0.650173
	C3698	C	0.040707	0.907252	0.661776
	O3699	O	0.046271	0.885170	0.693190
	O3700	O	0.035145	0.929364	0.630327
	C3701	C	0.346199	0.032878	0.522057
	O3702	O	0.337196	0.053435	0.498436
	O3703	O	0.355185	0.012320	0.545679
	C3704	C	0.356629	0.258545	0.960505
	O3705	O	0.344307	0.276023	0.926424
	O3706	O	0.368952	0.241096	0.994552
	C3707	C	0.158423	0.079569	0.857050
	O3708	O	0.158227	0.101168	0.823038
	O3709	O	0.158627	0.057959	0.891096
	C3710	C	0.221417	0.304388	0.595242
	O3711	O	0.228497	0.323982	0.565248
	O3712	O	0.214352	0.284765	0.625271
	C3713	C	0.378528	0.093434	0.674245
	O3714	O	0.399886	0.109544	0.681795
	O3715	O	0.357162	0.077314	0.666729
	C3716	C	0.073845	0.150744	0.920883
	O3717	O	0.085748	0.139517	0.922614
	O3718	O	0.061951	0.161990	0.919151
	C3719	C	0.954009	0.266642	0.043571
	O3720	O	0.970850	0.265762	0.079107
	O3721	O	0.937175	0.267503	0.008035
	C3722	C	0.449070	0.084758	0.471525
	O3723	O	0.457665	0.107374	0.469793
	O3724	O	0.440509	0.062151	0.473291
	C3725	C	0.706445	0.661795	0.472979
	O3726	O	0.713434	0.643993	0.511355
	O3727	O	0.699457	0.679597	0.434603
	C3728	C	0.084888	0.134089	0.673829
	O3729	O	0.064008	0.124279	0.678436
	O3730	O	0.105770	0.143907	0.669257
	C3731	C	0.090128	0.396257	0.165903
	O3732	O	0.113439	0.402794	0.172103
	O3733	O	0.066799	0.389691	0.159738
	C3734	C	0.971951	0.298229	0.384417
	O3735	O	0.981840	0.279069	0.418740
	O3736	O	0.962043	0.317360	0.350128
	C3737	C	0.047250	0.919391	0.159357
	O3738	O	0.034109	0.895690	0.170648
	O3739	O	0.060399	0.943082	0.148100
	C3740	C	0.291449	0.769220	0.018772
	O3741	O	0.301294	0.759435	0.014166
	O3742	O	0.281604	0.779035	0.023344
	C3743	C	0.917305	0.333250	0.881641
	O3744	O	0.908790	0.354208	0.852097
	O3745	O	0.925814	0.312313	0.911185
	C3746	C	0.914462	0.375693	0.297344
	O3747	O	0.929852	0.363168	0.310471
	O3748	O	0.899062	0.388200	0.284217
	C3749	C	0.476328	0.735743	0.633548
	O3750	O	0.492288	0.738385	0.623192
	O3751	O	0.460343	0.733111	0.643870
	C3752	C	0.367607	0.932863	0.944954
	O3753	O	0.373815	0.957637	0.921991
	O3754	O	0.361415	0.908089	0.967917
	C3755	C	0.631799	0.620405	0.669777
	O3756	O	0.620688	0.625247	0.679786
	O3757	O	0.642936	0.615583	0.659767
	C3758	C	0.559092	0.326803	0.763361
	O3759	O	0.556237	0.349689	0.732016
	O3760	O	0.561945	0.303887	0.794741
	C3761	C	0.918127	0.580939	0.211933
	O3762	O	0.906752	0.565551	0.237078
	O3763	O	0.929510	0.596337	0.186753
	C3764	C	0.613245	0.574297	0.099334
	O3765	O	0.615076	0.598723	0.083817
	O3766	O	0.611420	0.549852	0.114851
	C3767	C	0.848233	0.911064	0.188139
	O3768	O	0.825316	0.901641	0.185299
	O3769	O	0.871142	0.920497	0.190944
	C3770	C	0.093005	0.093759	0.582427
	O3771	O	0.111253	0.081887	0.611590
	O3772	O	0.074723	0.105622	0.553229
	C3773	C	0.299376	0.165205	0.966324
	O3774	O	0.286210	0.154360	0.942495
	O3775	O	0.312542	0.176049	0.990153
	C3776	C	0.569134	0.644736	0.656408
	O3777	O	0.568294	0.631219	0.692602
	O3778	O	0.569968	0.658273	0.620214
	C3779	C	0.248348	0.308466	0.519875
	O3780	O	0.269448	0.323492	0.516308
	O3781	O	0.227231	0.293439	0.523443
	C3782	C	0.056652	0.928029	0.310817
	O3783	O	0.037238	0.929403	0.276667
	O3784	O	0.076074	0.926665	0.344933
	C3785	C	0.675967	0.630479	0.824112
	O3786	O	0.661597	0.642815	0.785805
	O3787	O	0.690345	0.618163	0.862418
	C3788	C	0.373535	0.377296	0.991642
	O3789	O	0.390122	0.396130	0.976819
	O3790	O	0.356956	0.358472	1.006432
	C3791	C	0.354916	0.931812	0.619002
	O3792	O	0.365504	0.916768	0.626344
	O3793	O	0.344301	0.946836	0.611659
	C3794	C	0.649328	0.670245	0.346353
	O3795	O	0.634572	0.664886	0.361384
	O3796	O	0.664109	0.675593	0.331356
	C3797	C	0.268471	0.965465	0.461169
	O3798	O	0.275554	0.944682	0.495077
	O3799	O	0.261395	0.986229	0.427261
	C3800	C	0.869834	0.765904	0.299387
	O3801	O	0.893413	0.770549	0.322454
	O3802	O	0.846265	0.761278	0.276320
	C3803	C	0.414262	0.780748	0.176120
	O3804	O	0.412611	0.797999	0.138506
	O3805	O	0.415914	0.763496	0.213734
	C3806	C	0.501626	0.520614	0.928918
	O3807	O	0.521393	0.537041	0.921368
	O3808	O	0.481866	0.504167	0.936468
	C3809	C	0.082456	0.176607	0.287265
	O3810	O	0.061253	0.180534	0.274692
	O3811	O	0.103684	0.172671	0.299872
	C3812	C	0.511872	0.529015	0.742199
	O3813	O	0.533881	0.542751	0.741714
	O3814	O	0.489872	0.515268	0.742719
	C3815	C	0.523907	0.542903	0.569161
	O3816	O	0.541912	0.560056	0.556797
	O3817	O	0.505904	0.525780	0.581492
	C3818	C	0.114139	0.425055	0.781857
	O3819	O	0.129570	0.424225	0.817808
	O3820	O	0.098726	0.425893	0.745940
	C3821	C	0.363446	0.590812	0.336170
	O3822	O	0.355059	0.596464	0.297967
	O3823	O	0.371848	0.585130	0.374407
	C3824	C	0.050953	0.306239	0.900933
	O3825	O	0.050129	0.286279	0.936018
	O3826	O	0.051777	0.326198	0.865847
	C3827	C	0.102450	0.173085	0.479629
	O3828	O	0.078333	0.170266	0.462935
	O3829	O	0.126552	0.175933	0.496289
	C3830	C	0.447530	0.953278	0.686263
	O3831	O	0.466413	0.942790	0.717504
	O3832	O	0.428638	0.963777	0.654988
	C3833	C	0.111948	0.437670	0.433876
	O3834	O	0.132392	0.453666	0.428508
	O3835	O	0.091479	0.421683	0.439210
	C3836	C	0.664357	0.700318	0.146438
	O3837	O	0.642716	0.706155	0.125345
	O3838	O	0.686008	0.694500	0.167531
	C3839	C	0.958755	0.546325	0.455592
	O3840	O	0.969949	0.570684	0.443955
	O3841	O	0.947544	0.521966	0.467230
	C3842	C	0.593104	0.659027	0.510697
	O3843	O	0.588067	0.673414	0.471282
	O3844	O	0.598132	0.644620	0.550112
	C3845	C	0.137159	0.640431	0.345175
	O3846	O	0.159719	0.646092	0.348812
	O3847	O	0.114565	0.634761	0.341504
	C3848	C	0.136229	0.068096	0.209820
	O3849	O	0.130046	0.089031	0.194373
	O3850	O	0.142414	0.047170	0.225302
	C3851	C	0.604186	0.939999	0.484790
	O3852	O	0.620287	0.931529	0.522923
	O3853	O	0.588086	0.948469	0.446656
	C3854	C	0.529149	0.234723	0.276043
	O3855	O	0.528964	0.214686	0.277810
	O3856	O	0.529342	0.254751	0.274311
	C3857	C	0.414411	0.638815	0.667352
	O3858	O	0.415983	0.656435	0.631747
	O3859	O	0.412856	0.621195	0.702957
	C3860	C	0.368277	0.764035	0.231398
	O3861	O	0.372868	0.742364	0.265133
	O3862	O	0.363670	0.785707	0.197663
	C3863	C	0.281474	0.964435	0.137883
	O3864	O	0.299934	0.954241	0.171514
	O3865	O	0.263048	0.974639	0.104287
	C3866	C	0.374274	0.922737	0.864877
	O3867	O	0.379436	0.917827	0.846625
	O3868	O	0.369122	0.927667	0.883130
	C3869	C	0.993122	0.383567	0.651870
	O3870	O	0.999620	0.400312	0.663196
	O3871	O	0.986624	0.366823	0.640545
	C3872	C	0.926868	0.526857	0.775103
	O3873	O	0.919390	0.504393	0.776904
	O3874	O	0.934345	0.549321	0.773302
	C3875	C	0.408912	0.357817	0.606810
	O3876	O	0.394893	0.335282	0.622223
	O3877	O	0.422912	0.380323	0.591432
	C3878	C	0.519439	0.521597	0.503181
	O3879	O	0.514417	0.501768	0.535150
	O3880	O	0.524470	0.541436	0.471178
	C3881	C	0.861250	0.744656	0.945543
	O3882	O	0.837927	0.734532	0.940590
	O3883	O	0.884572	0.754781	0.950496
	C3884	C	0.948096	0.403922	0.149486
	O3885	O	0.951365	0.385328	0.187100
	O3886	O	0.944843	0.422515	0.111872
	C3887	C	0.954772	0.285484	0.875857
	O3888	O	0.943453	0.296987	0.835818
	O3889	O	0.966126	0.273990	0.915930
	C3890	C	0.328574	0.227657	0.072873
	O3891	O	0.321529	0.215196	0.053823
	O3892	O	0.335619	0.240117	0.091922
	C3893	C	0.090939	0.100819	0.407311
	O3894	O	0.070553	0.109296	0.384348
	O3895	O	0.111326	0.092371	0.430239
	C3896	C	0.165680	0.288190	0.720310
	O3897	O	0.152576	0.281821	0.738909
	O3898	O	0.178784	0.294560	0.701711
	C3899	C	0.057635	0.369567	0.515130
	O3900	O	0.055776	0.393444	0.494696
	O3901	O	0.059520	0.345679	0.535600
	C3902	C	0.742138	0.285720	0.810881
	O3903	O	0.762611	0.296675	0.832182
	O3904	O	0.721650	0.274765	0.789580
	C3905	C	0.131576	0.684656	0.740987
	O3906	O	0.112096	0.666496	0.747325
	O3907	O	0.151048	0.702828	0.734614
	C3908	C	0.122084	0.900386	0.774410
	O3909	O	0.135450	0.884274	0.792559
	O3910	O	0.108685	0.916488	0.756227
	C3911	C	0.552606	0.245195	0.925177
	O3912	O	0.566575	0.267686	0.909522
	O3913	O	0.538655	0.222712	0.940867
	C3914	C	0.135708	0.076895	0.554615
	O3915	O	0.133328	0.097218	0.548553
	O3916	O	0.138088	0.056572	0.560676
	C3917	C	0.828207	0.159676	0.761249
	O3918	O	0.806708	0.150046	0.739221
	O3919	O	0.849687	0.169296	0.783242
	C3920	C	0.658621	0.685684	0.818293
	O3921	O	0.638070	0.689648	0.785182
	O3922	O	0.679163	0.681730	0.851370
	C3923	C	0.915702	0.116382	0.238360
	O3924	O	0.939899	0.120470	0.253738
	O3925	O	0.891505	0.112294	0.222982
	C3926	C	0.016328	0.374594	0.847317
	O3927	O	0.026050	0.397870	0.843473
	O3928	O	0.006613	0.351329	0.851127
	C3929	C	0.783306	0.406866	0.697901
	O3930	O	0.766788	0.420940	0.672790
	O3931	O	0.799850	0.392782	0.723046
	C3932	C	0.330568	0.368020	0.250274
	O3933	O	0.307309	0.367407	0.236836
	O3934	O	0.353817	0.368613	0.263713
	C3935	C	0.240801	0.331941	0.084545
	O3936	O	0.236700	0.345479	0.045476
	O3937	O	0.244928	0.318422	0.123613
	C3938	C	0.836082	0.130885	0.132099
	O3939	O	0.847626	0.152738	0.133484
	O3940	O	0.824556	0.109041	0.130748
	C3941	C	0.905708	0.037912	0.820440
	O3942	O	0.926840	0.037059	0.852166
	O3943	O	0.884558	0.038765	0.788714
	C3944	C	0.322834	0.243277	0.734753
	O3945	O	0.333943	0.258695	0.750789
	O3946	O	0.311698	0.227841	0.718717
	C3947	C	0.901835	0.016472	0.276632
	O3948	O	0.880435	0.008469	0.278745
	O3949	O	0.923227	0.024465	0.274554
	C3950	C	0.683628	0.654489	0.117171
	O3951	O	0.678791	0.631544	0.146369
	O3952	O	0.688500	0.677444	0.088008
	C3953	C	0.414242	0.373276	0.933905
	O3954	O	0.428725	0.394394	0.916726
	O3955	O	0.399741	0.352149	0.951050
	C3956	C	0.371607	0.619451	0.208435
	O3957	O	0.379508	0.598239	0.231606
	O3958	O	0.363715	0.640653	0.185299
	C3959	C	0.613454	0.443755	0.256924
	O3960	O	0.630572	0.455597	0.279056
	O3961	O	0.596353	0.431913	0.234793
	C3962	C	0.553280	0.922081	0.074431
	O3963	O	0.561806	0.901827	0.093758
	O3964	O	0.544755	0.942334	0.055105
	C3965	C	0.624207	0.068429	0.413788
	O3966	O	0.630769	0.084546	0.382512
	O3967	O	0.617662	0.052312	0.445063
	C3968	C	0.936753	0.494465	0.119007
	O3969	O	0.920956	0.482933	0.096148
	O3970	O	0.952560	0.506017	0.141866
	C3971	C	0.009092	0.466298	0.894802
	O3972	O	0.014232	0.489402	0.889261
	O3973	O	0.003954	0.443224	0.900309
	C3974	C	0.005441	0.432965	0.457705
	O3975	O	0.016691	0.456304	0.453514
	O3976	O	-0.005792	0.409626	0.461896
	C3977	C	0.709600	0.094858	0.571447
	O3978	O	0.700281	0.088005	0.595865
	O3979	O	0.718926	0.101722	0.546995
	C3980	C	0.282733	0.942698	0.975606
	O3981	O	0.306005	0.948442	0.982222
	O3982	O	0.259445	0.936955	0.968991
	C3983	C	0.406560	0.944001	0.062413
	O3984	O	0.415748	0.926704	0.072596
	O3985	O	0.397372	0.961298	0.052230
	C3986	C	0.623606	0.324723	0.970446
	O3987	O	0.613713	0.328100	0.984265
	O3988	O	0.633481	0.321318	0.956661
	C3989	C	0.488496	0.754853	0.446275
	O3990	O	0.507343	0.760098	0.439522
	O3991	O	0.469650	0.749637	0.452995
	C3992	C	0.529438	0.977141	0.371567
	O3993	O	0.514430	0.954499	0.377040
	O3994	O	0.544463	0.999812	0.366060
	C3995	C	0.625098	0.596040	0.249132
	O3996	O	0.635918	0.615086	0.223675
	O3997	O	0.614296	0.577003	0.274623
	C3998	C	0.552194	0.914577	0.383897
	O3999	O	0.573413	0.908106	0.403951
	O4000	O	0.530974	0.921018	0.363878
	C4001	C	0.476088	0.748404	0.066881
	O4002	O	0.459255	0.753322	0.029544
	O4003	O	0.492928	0.743466	0.104218
	C4004	C	0.427428	0.104748	0.523200
	O4005	O	0.433241	0.127557	0.519183
	O4006	O	0.421596	0.081910	0.527253
	C4007	C	0.624444	0.883063	0.027085
	O4008	O	0.603548	0.868193	0.031622
	O4009	O	0.645349	0.897923	0.022582
	C4010	C	0.947014	0.261377	0.197906
	O4011	O	0.964096	0.259415	0.233927
	O4012	O	0.929924	0.263350	0.161851
	C4013	C	0.920211	0.315221	0.249997
	O4014	O	0.929183	0.294465	0.277879
	O4015	O	0.911266	0.335996	0.222116
	C4016	C	0.589823	0.358198	0.842503
	O4017	O	0.586474	0.360382	0.865986
	O4018	O	0.593162	0.355994	0.819020
	C4019	C	0.339351	0.573535	0.022755
	O4020	O	0.319018	0.563969	-0.000727
	O4021	O	0.359702	0.583101	0.046238
	C4022	C	0.786168	0.876409	0.846244
	O4023	O	0.796680	0.861953	0.885762
	O4024	O	0.775648	0.890876	0.806690
	C4025	C	0.424043	0.105009	0.016902
	O4026	O	0.423992	0.128997	0.000658
	O4027	O	0.424084	0.081012	0.033181
	C4028	C	0.576067	0.324036	0.133346
	O4029	O	0.558745	0.333693	0.096909
	O4030	O	0.593396	0.314358	0.169782
	C4031	C	0.678601	0.859681	0.335581
	O4032	O	0.663008	0.873090	0.319060
	O4033	O	0.694159	0.846263	0.352068
	C4034	C	0.283752	0.959882	0.312687
	O4035	O	0.269866	0.953322	0.283351
	O4036	O	0.297646	0.966432	0.342058
	C4037	C	0.921385	0.331912	0.557905
	O4038	O	0.907028	0.348299	0.532621
	O4039	O	0.935758	0.315524	0.583189
	C4040	C	0.558127	0.344548	0.274415
	O4041	O	0.535257	0.347262	0.249270
	O4042	O	0.580970	0.341814	0.299560
	C4043	C	0.145022	0.847458	0.095039
	O4044	O	0.143123	0.835420	0.079246
	O4045	O	0.146914	0.859514	0.110833
	C4046	C	0.784137	0.977062	0.014200
	O4047	O	0.774393	0.991285	0.010494
	O4048	O	0.793882	0.962838	0.017906
	C4049	C	0.434582	0.101553	0.216540
	O4050	O	0.437555	0.125944	0.203032
	O4051	O	0.431608	0.077133	0.230082
	C4052	C	0.128896	0.200605	0.704204
	O4053	O	0.115750	0.178037	0.705971
	O4054	O	0.142042	0.223174	0.702438
	C4055	C	0.084113	0.396535	0.943292
	O4056	O	0.104337	0.414751	0.942114
	O4057	O	0.063899	0.378338	0.944469
	C4058	C	0.351983	0.053389	0.016660
	O4059	O	0.361386	0.078130	-0.000450
	O4060	O	0.342571	0.028629	0.033769
	C4061	C	0.546815	0.233685	0.585301
	O4062	O	0.540090	0.210203	0.611694
	O4063	O	0.553538	0.257157	0.558875
	C4064	C	0.568524	0.238053	0.203482
	O4065	O	0.568344	0.242273	0.227865
	O4066	O	0.568720	0.233833	0.179099
	C4067	C	0.313639	0.901363	0.271610
	O4068	O	0.290580	0.901881	0.257132
	O4069	O	0.336663	0.900836	0.286053
	C4070	C	0.962267	0.936608	0.602688
	O4071	O	0.959840	0.957225	0.595692
	O4072	O	0.964702	0.916001	0.609650
	C4073	C	0.836981	0.672371	0.845378
	O4074	O	0.851228	0.655954	0.876307
	O4075	O	0.822699	0.688780	0.814414
	C4076	C	0.060620	0.458488	0.806067
	O4077	O	0.079702	0.447755	0.834225
	O4078	O	0.041532	0.469240	0.777908
	C4079	C	0.016449	0.478628	0.549489
	O4080	O	0.018466	0.503112	0.533903
	O4081	O	0.014457	0.454133	0.565109
	C4082	C	0.463217	0.057200	0.013612
	O4083	O	0.453556	0.077150	-0.018184
	O4084	O	0.472861	0.037249	0.045407
	C4085	C	0.214385	0.118835	0.957354
	O4086	O	0.192429	0.117220	0.928087
	O4087	O	0.236340	0.120420	0.986655
	C4088	C	0.251106	0.992986	0.760937
	O4089	O	0.243117	1.010488	0.752728
	O4090	O	0.259087	0.975493	0.769111
	C4091	C	0.633479	0.624049	0.508238
	O4092	O	0.651611	0.611861	0.535150
	O4093	O	0.615362	0.636208	0.481361
	C4094	C	0.078068	0.162143	0.812855
	O4095	O	0.056416	0.153648	0.789511
	O4096	O	0.099719	0.170608	0.836234
	C4097	C	0.035530	0.930008	0.972143
	O4098	O	0.013364	0.929428	0.942876
	O4099	O	0.057706	0.930606	1.001410
	C4100	C	0.303633	0.954918	0.673448
	O4101	O	0.323365	0.945909	0.704481
	O4102	O	0.283901	0.963927	0.642415
	C4103	C	0.790068	0.431508	0.351860
	O4104	O	0.781394	0.451878	0.331356
	O4105	O	0.798733	0.411148	0.372329
	C4106	C	0.280551	0.771212	0.692117
	O4107	O	0.271694	0.780200	0.699633
	O4108	O	0.289408	0.762254	0.684566
	C4109	C	0.473504	0.747489	0.931931
	O4110	O	0.449406	0.742395	0.919324
	O4111	O	0.497619	0.752583	0.944539
	C4112	C	0.203695	0.112938	0.701815
	O4113	O	0.214455	0.137372	0.686333
	O4114	O	0.192935	0.088474	0.717331
	C4115	C	0.763500	0.495662	0.042809
	O4116	O	0.761353	0.510918	0.048766
	O4117	O	0.765647	0.480416	0.036887
	C4118	C	0.715942	0.866895	0.009559
	O4119	O	0.716269	0.845350	0.043710
	O4120	O	0.715632	0.888439	-0.024591
	C4121	C	0.233838	0.332692	0.904085
	O4122	O	0.246181	0.333842	0.938581
	O4123	O	0.221522	0.331560	0.869588
	C4124	C	0.377627	0.923107	0.509831
	O4125	O	0.370332	0.944842	0.482989
	O4126	O	0.384921	0.901343	0.536708
	C4127	C	0.084059	0.399918	0.625929
	O4128	O	0.069288	0.377641	0.639748
	O4129	O	0.098820	0.422177	0.612109
	C4130	C	0.913294	0.565371	0.076544
	O4131	O	0.905040	0.541912	0.101100
	O4132	O	0.921550	0.588840	0.052022
	C4133	C	0.062667	0.273809	0.609581
	O4134	O	0.047549	0.271909	0.620803
	O4135	O	0.077767	0.275679	0.598394
	C4136	C	0.541507	0.554442	0.851681
	O4137	O	0.522619	0.534654	0.852859
	O4138	O	0.560403	0.574220	0.850538
	C4139	C	0.015847	0.478464	0.220973
	O4140	O	0.018264	0.501119	0.214219
	O4141	O	0.013430	0.455810	0.227727
	C4142	C	0.573650	0.602044	0.408765
	O4143	O	0.553244	0.604448	0.375481
	O4144	O	0.594047	0.599650	0.442015
	C4145	C	0.777100	0.370981	0.306003
	O4146	O	0.797503	0.365638	0.318437
	O4147	O	0.756699	0.376353	0.293534
	C4148	C	0.669423	0.692609	0.668288
	O4149	O	0.691842	0.688328	0.690870
	O4150	O	0.647022	0.696899	0.645740
	C4151	C	0.387473	0.313108	0.461238
	O4152	O	0.389459	0.289731	0.478209
	O4153	O	0.385496	0.336496	0.444232
	C4154	C	0.337386	0.223067	0.277082
	O4155	O	0.331190	0.238397	0.237529
	O4156	O	0.343588	0.207719	0.316636
	C4157	C	0.739042	0.468787	0.580937
	O4158	O	0.722728	0.447768	0.579587
	O4159	O	0.755364	0.489797	0.582323
	C4160	C	0.753137	0.114062	0.715011
	O4161	O	0.760759	0.099718	0.715149
	O4162	O	0.745539	0.128396	0.714907
	C4163	C	0.645153	0.552382	0.822692
	O4164	O	0.659477	0.573529	0.825566
	O4165	O	0.630819	0.531216	0.819817
	C4166	C	0.749259	0.324999	0.480530
	O4167	O	0.761410	0.306781	0.511909
	O4168	O	0.737082	0.343228	0.449116
	C4169	C	0.579059	0.930526	0.959882
	O4170	O	0.579524	0.932576	0.987209
	O4171	O	0.578578	0.928475	0.932555
	C4172	C	0.261137	0.595962	0.014166
	O4173	O	0.239658	0.580046	0.014304
	O4174	O	0.282650	0.611888	0.014062
	C4175	C	0.578472	0.266529	0.393180
	O4176	O	0.561177	0.278484	0.374754
	O4177	O	0.595784	0.254603	0.411571
	C4178	C	0.429187	0.975038	0.299353
	O4179	O	0.451808	0.978673	0.325987
	O4180	O	0.406566	0.971403	0.272718
	C4181	C	0.674580	0.479191	0.576331
	O4182	O	0.653075	0.485224	0.555550
	O4183	O	0.696101	0.473158	0.597112
	C4184	C	0.913274	0.075061	0.143806
	O4185	O	0.891993	0.069977	0.144013
	O4186	O	0.934540	0.080175	0.143563
	C4187	C	0.440349	0.010583	0.942218
	O4188	O	0.444865	0.024268	0.957561
	O4189	O	0.435825	-0.003091	0.926840
	C4190	C	0.365034	0.345565	0.150767
	O4191	O	0.356951	0.328510	0.180277
	O4192	O	0.373142	0.362609	0.121293
	C4193	C	0.066360	0.591580	0.471421
	O4194	O	0.063340	0.567770	0.500168
	O4195	O	0.069363	0.615390	0.442673
	C4196	C	0.392692	0.323403	0.304271
	O4197	O	0.398027	0.345509	0.302123
	O4198	O	0.387384	0.301317	0.306418
	C4199	C	0.723808	0.878939	0.145260
	O4200	O	0.707184	0.892544	0.113396
	O4201	O	0.740431	0.865304	0.177159
	C4202	C	0.855046	0.641773	0.223224
	O4203	O	0.870896	0.626912	0.248404
	O4204	O	0.839213	0.656635	0.198044
	C4205	C	0.639318	0.859309	0.694091
	O4206	O	0.649075	0.855603	0.680479
	O4207	O	0.629585	0.863005	0.707737
	C4208	C	0.983144	0.878545	0.034497
	O4209	O	1.006812	0.879503	0.057910
	O4210	O	0.959467	0.877567	0.011083
	C4211	C	0.174953	0.783778	0.036298
	O4212	O	0.167838	0.759404	0.059919
	O4213	O	0.182058	0.808132	0.012677
	C4214	C	0.839349	0.138253	0.700879
	O4215	O	0.844940	0.157935	0.705347
	O4216	O	0.833749	0.118582	0.696377
	C4217	C	0.513524	0.535393	0.234723
	O4218	O	0.502166	0.511221	0.250552
	O4219	O	0.524856	0.559575	0.218860
	C4220	C	0.013806	0.888982	0.238983
	O4221	O	0.035594	0.893464	0.240958
	O4222	O	-0.007966	0.884501	0.237009
