data_Molecule from CHK

_cell_length_a		50.108817
_cell_length_b		49.940372
_cell_length_c		39.701791
_cell_angle_alpha	131.791378
_cell_angle_beta	92.743528
_cell_angle_gamma	89.911608
_symmetry_space_group_name_H-M	'P 1'
_symmetry_Int_Tables_number		1

loop_
	_symmetry_equiv_pos_as_xyz
	x,y,z

loop_
	_atom_site_label
	_atom_site_type_symbol
	_atom_site_fract_x
	_atom_site_fract_y
	_atom_site_fract_z
	F0	F	0.230123	0.509411	-0.045590
	C1	C	0.220182	0.538770	-0.007962
	C2	C	0.193318	0.545508	-0.008031
	F3	F	0.177531	0.522446	-0.045644
	C4	C	0.182606	0.576338	0.030712
	C5	C	0.199389	0.599928	0.069846
	F6	F	0.189642	0.629684	0.107207
	C7	C	0.226195	0.592850	0.070124
	F8	F	0.241785	0.615197	0.108105
	C9	C	0.237081	0.562667	0.030876
	C10	C	0.081691	0.568418	0.014831
	C11	C	0.062617	0.584006	0.006778
	C12	C	0.070444	0.609610	0.004476
	C13	C	0.097331	0.618871	0.009362
	C14	C	0.116564	0.603201	0.017628
	C15	C	0.108751	0.578262	0.020612
	C16	C	0.035660	0.567794	0.001070
	C17	C	0.067526	0.543342	0.017317
	N18	N	0.040062	0.543067	0.007009
	O19	O	0.076339	0.527162	0.027592
	O20	O	0.014081	0.573475	-0.006797
	C21	C	0.099646	0.646891	0.005766
	C22	C	0.054593	0.631067	-0.002915
	N23	N	0.073235	0.653548	-0.000744
	O24	O	0.030969	0.630807	-0.009276
	O25	O	0.119105	0.661755	0.007565
	C26	C	0.133423	0.565320	0.028185
	C27	C	0.146585	0.606898	0.022867
	N28	N	0.155526	0.583497	0.029193
	O29	O	0.161182	0.624982	0.021344
	O30	O	0.135071	0.543691	0.032331
	C31	C	0.334736	0.563413	0.006729
	C32	C	0.355930	0.543060	0.000732
	C33	C	0.352351	0.516551	0.003020
	C34	C	0.327670	0.510677	0.011879
	C35	C	0.306274	0.531496	0.018426
	C36	C	0.309697	0.557202	0.015031
	C37	C	0.380242	0.555674	-0.006625
	C38	C	0.344927	0.590499	0.004426
	N39	N	0.372689	0.585210	-0.002055
	O40	O	0.333163	0.612557	0.006863
	O41	O	0.402237	0.544165	-0.014930
	C42	C	0.330586	0.482132	0.014662
	C43	C	0.371488	0.490953	-0.002515
	N44	N	0.357099	0.470218	0.003526
	O45	O	0.394684	0.487516	-0.010114
	O46	O	0.314964	0.471444	0.025662
	C47	C	0.283418	0.574237	0.022045
	C48	C	0.277518	0.530999	0.027231
	N49	N	0.264821	0.557267	0.029007
	O50	O	0.266389	0.512406	0.031671
	O51	O	0.277837	0.597113	0.021186
	F52	F	0.066034	0.641423	-0.079936
	C53	C	0.062645	0.674394	-0.040557
	C54	C	0.055710	0.701779	-0.039708
	F55	F	0.052075	0.694924	-0.078329
	C56	C	0.052437	0.736603	0.001132
	C57	C	0.056099	0.743302	0.041195
	F58	F	0.052682	0.776266	0.080521
	C59	C	0.063139	0.715971	0.040389
	F60	F	0.066816	0.722960	0.079104
	C61	C	0.066380	0.681131	-0.000453
	F62	F	-0.008832	0.429875	-0.083191
	C63	C	-0.004476	0.463431	-0.043879
	C64	C	0.015620	0.485242	-0.038704
	F65	F	0.030799	0.472481	-0.072970
	C66	C	0.020047	0.520632	0.002046
	C67	C	0.004213	0.533420	0.037705
	F68	F	0.008510	0.567013	0.076970
	C69	C	-0.015814	0.511568	0.032586
	F70	F	-0.031018	0.524344	0.066832
	C71	C	-0.020303	0.476216	-0.008213
	F72	F	0.387060	0.486485	0.075395
	C73	C	0.385977	0.452591	0.036112
	C74	C	0.402102	0.427482	0.030670
	F75	F	0.418570	0.437282	0.064940
	C76	C	0.401514	0.392060	-0.010528
	C77	C	0.382751	0.381747	-0.044785
	F78	F	0.380724	0.347489	-0.083258
	C79	C	0.366488	0.406915	-0.039194
	F80	F	0.348573	0.396727	-0.072115
	C81	C	0.368948	0.443044	0.000522
	F82	F	0.391696	0.573373	-0.075639
	C83	C	0.402815	0.600168	-0.034431
	C84	C	0.425782	0.618609	-0.028909
	F85	F	0.437251	0.609025	-0.064993
	C86	C	0.437202	0.647030	0.014298
	C87	C	0.423120	0.659544	0.051534
	F88	F	0.431283	0.690100	0.092503
	C89	C	0.400952	0.640057	0.046103
	F90	F	0.388751	0.650764	0.082240
	C91	C	0.391476	0.608922	0.003044
	C92	C	0.039790	0.846126	-0.019737
	C93	C	0.058415	0.831523	-0.009584
	C94	C	0.049900	0.807135	-0.005553
	C95	C	0.022823	0.798890	-0.009632
	C96	C	0.003934	0.815648	-0.016695
	C97	C	0.012473	0.838306	-0.023066
	C98	C	0.085729	0.846632	-0.005020
	C99	C	0.054517	0.869875	-0.023874
	N100	N	0.081880	0.870249	-0.012915
	O101	O	0.046137	0.885170	-0.035667
	O102	O	0.107085	0.841223	0.003832
	C103	C	0.019863	0.772409	-0.003519
	C104	C	0.065242	0.785158	0.001463
	N105	N	0.046099	0.764365	0.001530
	O106	O	0.088863	0.783717	0.005817
	O107	O	0.000095	0.759499	-0.002677
	C108	C	-0.011759	0.851822	-0.030638
	C109	C	-0.026217	0.814093	-0.019663
	N110	N	-0.034368	0.837385	-0.026623
	O111	O	-0.041336	0.797547	-0.016324
	O112	O	-0.012857	0.871048	-0.038717
	C113	C	0.929139	0.387743	-0.009904
	C114	C	0.902220	0.378923	-0.014082
	C115	C	0.882955	0.395437	-0.020958
	C116	C	0.890816	0.420019	-0.024529
	C117	C	0.917919	0.429386	-0.019503
	C118	C	0.936977	0.413700	-0.011579
	C119	C	0.899883	0.350696	-0.010849
	C120	C	0.944991	0.365797	-0.003327
	N121	N	0.926310	0.343485	-0.005252
	O122	O	0.968645	0.365605	0.002300
	O123	O	0.880401	0.336068	-0.012268
	C124	C	0.866152	0.433368	-0.031470
	C125	C	0.852930	0.391859	-0.026068
	N126	N	0.844013	0.415484	-0.032038
	O127	O	0.838312	0.373739	-0.024637
	O128	O	0.864527	0.455105	-0.035434
	C129	C	0.964022	0.429109	-0.007188
	C130	C	0.932115	0.454144	-0.022500
	N131	N	0.959646	0.453850	-0.013107
	O132	O	0.923272	0.470473	-0.032537
	O133	O	0.985641	0.422939	-0.000126
	C134	C	0.479408	0.300594	-0.006016
	C135	C	0.452421	0.307055	-0.005781
	C136	C	0.443957	0.330997	-0.010808
	C137	C	0.462502	0.347070	-0.017951
	C138	C	0.489770	0.341416	-0.016807
	C139	C	0.498275	0.318454	-0.010614
	C140	C	0.437047	0.283872	-0.001297
	C141	C	0.482312	0.273937	-0.000104
	N142	N	0.456073	0.264076	0.001019
	O143	O	0.502029	0.262107	0.003209
	O144	O	0.413475	0.280897	-0.000226
	C145	C	0.447821	0.370090	-0.023788
	C146	C	0.416759	0.344138	-0.010335
	N147	N	0.420610	0.368317	-0.017163
	O148	O	0.395469	0.336955	-0.005108
	O149	O	0.456103	0.386318	-0.033832
	C150	C	0.528419	0.319253	-0.008659
	C151	C	0.513953	0.356219	-0.021401
	N152	N	0.536584	0.343218	-0.014232
	O153	O	0.515037	0.375320	-0.029626
	O154	O	0.543540	0.303840	-0.002957
	C155	C	0.510403	0.661960	0.022920
	C156	C	0.501897	0.684941	0.016760
	C157	C	0.520763	0.702788	0.012137
	C158	C	0.547750	0.696323	0.011897
	C159	C	0.556252	0.672746	0.017523
	C160	C	0.537669	0.656338	0.024121
	C161	C	0.471751	0.684063	0.014689
	C162	C	0.486220	0.647001	0.027275
	N163	N	0.463591	0.660012	0.020127
	O164	O	0.485139	0.627773	0.035306
	O165	O	0.456627	0.699478	0.008995
	C166	C	0.563124	0.719454	0.007331
	C167	C	0.517856	0.729347	0.006061
	N168	N	0.544096	0.739194	0.004914
	O169	O	0.498138	0.741131	0.002669
	O170	O	0.586696	0.722436	0.006276
	C171	C	0.552338	0.633224	0.029807
	C172	C	0.583387	0.659131	0.016271
	N173	N	0.579525	0.634888	0.022994
	O174	O	0.604642	0.666064	0.010639
	O175	O	0.544072	0.617024	0.039900
	F176	F	0.930805	0.805392	-0.102976
	C177	C	0.923913	0.835391	-0.062845
	C178	C	0.901697	0.853356	-0.059983
	F179	F	0.888048	0.841640	-0.097589
	C180	C	0.893622	0.883958	-0.017968
	C181	C	0.906635	0.893863	0.020914
	F182	F	0.897009	0.920223	0.060916
	C183	C	0.929543	0.876887	0.018050
	F184	F	0.942449	0.887488	0.055586
	C185	C	0.939432	0.848950	-0.023935
	F186	F	0.084714	0.940046	0.068609
	C187	C	0.100854	0.931128	0.036997
	C188	C	0.116738	0.957507	0.044321
	F189	F	0.115768	0.991585	0.082810
	C190	C	0.133458	0.948994	0.011561
	C191	C	0.135707	0.912840	-0.026985
	F192	F	0.153242	0.903805	-0.056968
	C193	C	0.119583	0.886393	-0.034575
	F194	F	0.121439	0.852069	-0.072008
	C195	C	0.101126	0.895454	-0.003514
	F196	F	0.932465	0.273997	-0.085233
	C197	C	0.936344	0.281006	-0.046528
	C198	C	0.943375	0.253640	-0.047392
	F199	F	0.946735	0.220674	-0.086744
	C200	C	0.947113	0.260305	-0.007360
	C201	C	0.943841	0.295112	0.033507
	F202	F	0.947507	0.301924	0.072095
	C203	C	0.936842	0.322509	0.034411
	F204	F	0.933580	0.355503	0.073839
	C205	C	0.933114	0.315831	-0.005656
	F206	F	0.823141	0.476790	0.044121
	C207	C	0.806853	0.454295	0.007026
	C208	C	0.780006	0.461564	0.008270
	F209	F	0.770640	0.491045	0.046498
	C210	C	0.762582	0.438239	-0.029984
	C211	C	0.772895	0.408008	-0.069927
	F212	F	0.756782	0.386148	-0.107336
	C213	C	0.799682	0.400366	-0.070948
	F214	F	0.808903	0.370644	-0.109025
	C215	C	0.816984	0.423349	-0.032383
	F216	F	0.563037	0.394286	0.070762
	C217	C	0.574508	0.384491	0.034568
	C218	C	0.597439	0.402908	0.039919
	F219	F	0.608659	0.429673	0.081058
	C220	C	0.608776	0.393949	0.002325
	C221	C	0.599231	0.362773	-0.040651
	F222	F	0.611400	0.351898	-0.076893
	C223	C	0.577029	0.343417	-0.045901
	F224	F	0.568786	0.312837	-0.086789
	C225	C	0.562988	0.356090	-0.008564
	F226	F	0.433475	0.221687	0.074892
	C227	C	0.437831	0.214632	0.036838
	C228	C	0.445334	0.242455	0.038862
	F229	F	0.448757	0.275882	0.078771
	C230	C	0.449458	0.235791	-0.000546
	C231	C	0.446167	0.200526	-0.041936
	F232	F	0.450253	0.193708	-0.079907
	C233	C	0.438702	0.172669	-0.043977
	F234	F	0.435335	0.139232	-0.083906
	C235	C	0.434591	0.179341	-0.004535
	F236	F	0.581395	0.565976	-0.059239
	C237	C	0.597935	0.575662	-0.025100
	C238	C	0.613897	0.550409	-0.030603
	F239	F	0.612759	0.516546	-0.069945
	C240	C	0.631009	0.559860	0.004859
	C241	C	0.633583	0.595971	0.044602
	F242	F	0.651558	0.606047	0.077397
	C243	C	0.617369	0.621234	0.050341
	F244	F	0.619467	0.655467	0.088864
	C245	C	0.598579	0.611042	0.016177
	F246	F	0.566675	0.781424	-0.069139
	C247	C	0.562410	0.788512	-0.031039
	C248	C	0.554743	0.760760	-0.033017
	F249	F	0.551308	0.727318	-0.072894
	C250	C	0.550715	0.767454	0.006434
	C251	C	0.554041	0.802730	0.047797
	F252	F	0.550125	0.809568	0.085827
	C253	C	0.561550	0.830542	0.049774
	F254	F	0.565115	0.863952	0.089690
	C255	C	0.565677	0.823817	0.010304
	C256	C	0.804213	0.959779	-0.031893
	C257	C	0.808899	0.933833	-0.029149
	C258	C	0.835016	0.927267	-0.022907
	C259	C	0.856112	0.947881	-0.017616
	C260	C	0.851473	0.973772	-0.020785
	C261	C	0.825727	0.979390	-0.028742
	C262	C	0.782426	0.918272	-0.031905
	C263	C	0.774478	0.960532	-0.038409
	N264	N	0.762484	0.935393	-0.037378
	O265	O	0.762077	0.978512	-0.043044
	O266	O	0.777761	0.896427	-0.028915
	C267	C	0.881568	0.935587	-0.011101
	C268	C	0.846307	0.900841	-0.019959
	N269	N	0.874527	0.906241	-0.014888
	O270	O	0.835001	0.879146	-0.021084
	O271	O	0.904003	0.947312	-0.003714
	C272	C	0.827477	1.008188	-0.031224
	C273	C	0.870323	0.999763	-0.015478
	N274	N	0.854762	1.020258	-0.021198
	O275	O	0.894091	1.003921	-0.007809
	O276	O	0.810450	1.018886	-0.041447
	C277	C	0.190716	0.064191	0.025079
	C278	C	0.195302	0.038770	0.028779
	C279	C	0.173841	0.018282	0.023984
	C280	C	0.148202	0.023231	0.014748
	C281	C	0.143514	0.049898	0.012991
	C282	C	0.164644	0.070370	0.018063
	C283	C	0.224993	0.038331	0.036009
	C284	C	0.217179	0.080711	0.029675
	N285	N	0.237042	0.063937	0.035873
	O286	O	0.221918	0.102974	0.027440
	O287	O	0.237322	0.020259	0.040561
	C288	C	0.129331	-0.002743	0.009446
	C289	C	0.172056	-0.010584	0.026340
	N290	N	0.144848	-0.023052	0.015532
	O291	O	0.188999	-0.021080	0.036969
	O292	O	0.105587	-0.007041	0.001488
	C293	C	0.153354	0.097133	0.015724
	C294	C	0.118133	0.061727	0.005538
	N295	N	0.125154	0.091339	0.009856
	O296	O	0.095765	0.049557	-0.002750
	O297	O	0.164657	0.119300	0.017749
	C298	C	0.959847	0.150706	0.013394
	C299	C	0.941174	0.165925	0.004242
	C300	C	0.949689	0.190252	0.000113
	C301	C	0.976790	0.197883	0.003167
	C302	C	0.995670	0.181974	0.011606
	C303	C	0.987140	0.158998	0.017471
	C304	C	0.913888	0.150478	-0.000880
	C305	C	0.945098	0.127228	0.017956
	N306	N	0.917734	0.126848	0.006996
	O307	O	0.953463	0.112111	0.030007
	O308	O	0.892559	0.155697	-0.010053
	C309	C	0.979732	0.224604	-0.002558
	C310	C	0.934357	0.211771	-0.007662
	N311	N	0.953491	0.232525	-0.007804
	O312	O	0.910743	0.212951	-0.012439
	O313	O	0.999497	0.237724	-0.003060
	C314	C	1.011374	0.145445	0.024980
	C315	C	1.025823	0.183130	0.013931
	N316	N	1.033979	0.159852	0.020916
	O317	O	1.040936	0.199430	0.010193
	O318	O	1.012471	0.126212	0.033049
	C319	C	0.647714	0.486181	0.001991
	C320	C	0.672268	0.491816	-0.007450
	C321	C	0.693690	0.470974	-0.014177
	C322	C	0.690194	0.444623	-0.011936
	C323	C	0.665378	0.439011	-0.002382
	C324	C	0.644234	0.459679	0.004316
	C325	C	0.669310	0.520544	-0.009892
	C326	C	0.628568	0.511923	0.007890
	N327	N	0.642868	0.532616	0.001691
	O328	O	0.605424	0.515463	0.015807
	O329	O	0.684857	0.531266	-0.020941
	C330	C	0.716479	0.427486	-0.019330
	C331	C	0.722193	0.470752	-0.024505
	N332	N	0.734913	0.444220	-0.026864
	O333	O	0.733114	0.489065	-0.029569
	O334	O	0.722170	0.404660	-0.018429
	C335	C	0.620044	0.447287	0.012210
	C336	C	0.655244	0.411882	-0.000116
	N337	N	0.627579	0.417551	0.007216
	O338	O	0.666986	0.389539	-0.003145
	O339	O	0.598140	0.459076	0.021150
	C340	C	0.437712	0.082611	0.003441
	C341	C	0.419013	0.067960	0.012432
	C342	C	0.392185	0.076849	0.015711
	C343	C	0.384377	0.100552	0.010410
	C344	C	0.403474	0.116691	0.003581
	C345	C	0.429980	0.107436	-0.000439
	C346	C	0.433218	0.043822	0.016880
	C347	C	0.464475	0.067981	0.001182
	N348	N	0.460266	0.044018	0.008243
	O349	O	0.485801	0.074305	-0.005027
	O350	O	0.424732	0.027992	0.027358
	C351	C	0.354727	0.104683	0.015197
	C352	C	0.367756	0.064811	0.023830
	N353	N	0.345902	0.082535	0.023210
	O354	O	0.366136	0.044371	0.029885
	O355	O	0.340283	0.122244	0.012247
	C356	C	0.445789	0.129329	-0.006604
	C357	C	0.401187	0.143924	-0.001412
	N358	N	0.427421	0.151256	-0.005965
	O359	O	0.381866	0.157875	-0.001743
	O360	O	0.469188	0.129775	-0.011084
	C361	C	0.615754	0.902095	-0.005587
	C362	C	0.607895	0.925699	-0.011032
	C363	C	0.581098	0.934793	-0.007368
	C364	C	0.562460	0.920321	0.001948
	C365	C	0.570177	0.895239	0.005384
	C366	C	0.596775	0.886516	0.002214
	C367	C	0.632232	0.937317	-0.019885
	C368	C	0.645374	0.897792	-0.010716
	N369	N	0.654094	0.919540	-0.019399
	O370	O	0.659867	0.880378	-0.007571
	O371	O	0.633774	0.957461	-0.026423
	C372	C	0.535677	0.934905	0.004189
	C373	C	0.566867	0.958979	-0.011710
	N374	N	0.539850	0.958868	-0.002880
	O375	O	0.575316	0.974806	-0.022214
	O376	O	0.514362	0.928534	0.010368
	C377	C	0.599053	0.859006	0.006737
	C378	C	0.554489	0.873872	0.012479
	N379	N	0.572858	0.851866	0.011670
	O380	O	0.531166	0.873809	0.017671
	O381	O	0.618348	0.844761	0.006529
	F382	F	0.679206	0.866721	-0.099043
	C383	C	0.693092	0.896954	-0.065260
	C384	C	0.719568	0.901384	-0.070229
	F385	F	0.730591	0.876159	-0.109364
	C386	C	0.734892	0.931952	-0.034504
	C387	C	0.722745	0.958561	0.005669
	F388	F	0.737012	0.988112	0.040139
	C389	C	0.696109	0.954557	0.010231
	F390	F	0.684883	0.980372	0.048928
	C391	C	0.680938	0.923649	-0.025072
	F392	F	0.884089	0.005465	-0.088326
	C393	C	0.882942	0.039598	-0.050030
	C394	C	0.898911	0.065922	-0.042691
	F395	F	0.915105	0.056942	-0.074274
	C396	C	0.898489	0.101659	-0.002364
	C397	C	0.879929	0.110780	0.028596
	F398	F	0.877940	0.145146	0.065835
	C399	C	0.863835	0.084355	0.021108
	F400	F	0.846255	0.093445	0.051058
	C401	C	0.866160	0.048173	-0.017301
	F402	F	0.316030	0.021458	-0.046878
	C403	C	0.304253	0.046672	-0.008543
	C404	C	0.277476	0.042040	-0.005352
	F405	F	0.263661	0.012423	-0.040690
	C406	C	0.264726	0.068067	0.034354
	C407	C	0.279582	0.098719	0.070998
	F408	F	0.267986	0.123355	0.109724
	C409	C	0.306180	0.103858	0.067345
	F410	F	0.319652	0.134132	0.102047
	C411	C	0.318942	0.077722	0.027636
	F412	F	0.111269	0.155704	0.092445
	C413	C	0.097823	0.144075	0.054734
	C414	C	0.075546	0.161887	0.057432
	F415	F	0.068563	0.191880	0.097494
	C416	C	0.060193	0.148375	0.018402
	C417	C	0.070244	0.120549	-0.023482
	F418	F	0.057490	0.109975	-0.061104
	C419	C	0.093168	0.103664	-0.026168
	F420	F	0.102952	0.077432	-0.066082
	C421	C	0.106029	0.113534	0.012792
	F422	F	0.494473	0.069740	0.081874
	C423	C	0.497230	0.036271	0.043045
	C424	C	0.517037	0.015420	0.040133
	F425	F	0.533361	0.028923	0.076215
	C426	C	0.520016	-0.019764	-0.000210
	C427	C	0.502850	-0.033406	-0.037654
	F428	F	0.505546	-0.066915	-0.076440
	C429	C	0.483099	-0.012517	-0.034783
	F430	F	0.466719	-0.026057	-0.070822
	C431	C	0.480085	0.022643	0.005588
	F432	F	0.230665	0.481968	0.052117
	C433	C	0.219852	0.509595	0.090121
	C434	C	0.192714	0.515162	0.089262
	F435	F	0.177920	0.493588	0.050256
	C436	C	0.180687	0.543065	0.128860
	C437	C	0.196524	0.565232	0.169303
	F438	F	0.185270	0.591552	0.207713
	C439	C	0.223737	0.560211	0.169973
	F440	F	0.238521	0.581849	0.209024
	C441	C	0.235878	0.532647	0.130303
	C442	C	0.080750	0.549442	0.145420
	C443	C	0.061764	0.572269	0.151248
	C444	C	0.068809	0.598053	0.148854
	C445	C	0.094702	0.600433	0.139990
	C446	C	0.114102	0.578409	0.135949
	C447	C	0.107173	0.552848	0.138309
	C448	C	0.035639	0.563027	0.159122
	C449	C	0.067490	0.525117	0.150066
	N450	N	0.040292	0.534327	0.157720
	O451	O	0.076829	0.502230	0.148439
	O452	O	0.014389	0.576212	0.165493
	C453	C	0.096260	0.629580	0.138358
	C454	C	0.053188	0.626772	0.155349
	N455	N	0.070931	0.645192	0.149281
	O456	O	0.030428	0.634457	0.164455
	O457	O	0.114227	0.638349	0.128221
	C458	C	0.132122	0.534156	0.133982
	C459	C	0.143520	0.576607	0.129340
	N460	N	0.153283	0.549663	0.128625
	O461	O	0.157282	0.594349	0.126168
	O462	O	0.134990	0.511153	0.135468
	C463	C	0.336289	0.553726	0.149180
	C464	C	0.357237	0.540371	0.157601
	C465	C	0.352468	0.512774	0.157587
	C466	C	0.326671	0.499141	0.150171
	C467	C	0.305313	0.513880	0.144002
	C468	C	0.310097	0.540762	0.143089
	C469	C	0.382734	0.559317	0.163797
	C470	C	0.347800	0.581578	0.149134
	N471	N	0.375787	0.584158	0.159054
	O472	O	0.336815	0.598215	0.141062
	O473	O	0.405201	0.555403	0.171117
	C474	C	0.327932	0.469738	0.151582
	C475	C	0.371223	0.492068	0.162687
	N476	N	0.355365	0.466470	0.158507
	O477	O	0.395070	0.494926	0.168745
	O478	O	0.310273	0.451762	0.148042
	C479	C	0.283671	0.550264	0.134590
	C480	C	0.275669	0.505700	0.136843
	N481	N	0.263719	0.528636	0.131775
	O482	O	0.263346	0.484875	0.136297
	O483	O	0.279198	0.571885	0.131035
	F484	F	0.036933	0.643735	0.090810
	C485	C	0.047735	0.675336	0.127703
	C486	C	0.041918	0.706357	0.135821
	F487	F	0.025539	0.704096	0.106460
	C488	C	0.053042	0.739776	0.174168
	C489	C	0.070255	0.741085	0.203914
	F490	F	0.081090	0.772613	0.240837
	C491	C	0.076182	0.710048	0.195682
	F492	F	0.092647	0.712175	0.224854
	C493	C	0.065006	0.676681	0.157412
	F494	F	-0.036763	0.453773	0.092875
	C495	C	-0.018712	0.475456	0.127473
	C496	C	0.001346	0.493063	0.124772
	F497	F	0.002571	0.488213	0.087553
	C498	C	0.020281	0.516174	0.160715
	C499	C	0.018788	0.520941	0.199392
	F500	F	0.036810	0.542671	0.234027
	C501	C	-0.001230	0.503266	0.202047
	F502	F	-0.002519	0.508205	0.239320
	C503	C	-0.020202	0.480223	0.166150
	F504	F	0.353687	0.469461	0.231230
	C505	C	0.367153	0.443565	0.195625
	C506	C	0.382240	0.420865	0.196943
	F507	F	0.382861	0.424595	0.233461
	C508	C	0.397105	0.394351	0.160598
	C509	C	0.394252	0.388616	0.121075
	F510	F	0.406990	0.361894	0.085015
	C511	C	0.378847	0.410938	0.119477
	F512	F	0.376272	0.405278	0.081551
	C513	C	0.366365	0.439948	0.157614
	F514	F	0.388070	0.569941	0.081368
	C515	C	0.402791	0.594990	0.119484
	C516	C	0.425713	0.610012	0.118500
	F517	F	0.432658	0.599897	0.079572
	C518	C	0.441776	0.635228	0.157925
	C519	C	0.432438	0.648520	0.199016
	F520	F	0.446196	0.675260	0.237529
	C521	C	0.409363	0.633686	0.199982
	F522	F	0.400852	0.646265	0.239385
	C523	C	0.395212	0.605093	0.159802
	C524	C	0.041124	0.862007	0.176156
	C525	C	0.059979	0.842859	0.178425
	C526	C	0.051570	0.817692	0.181223
	C527	C	0.024575	0.812534	0.182713
	C528	C	0.005612	0.832275	0.180994
	C529	C	0.013952	0.856739	0.177494
	C530	C	0.087129	0.853808	0.175377
	C531	C	0.055336	0.885997	0.172007
	N532	N	0.082938	0.880026	0.171879
	O533	O	0.046348	0.906325	0.168486
	O534	O	0.108669	0.843652	0.175818
	C535	C	0.021847	0.784763	0.186641
	C536	C	0.066650	0.790754	0.179321
	N537	N	0.047623	0.771202	0.181813
	O538	O	0.090000	0.785026	0.175679
	O539	O	0.002705	0.775495	0.194121
	C540	C	-0.010281	0.872270	0.173448
	C541	C	-0.024518	0.830959	0.178639
	N542	N	-0.032812	0.855484	0.173779
	O543	O	-0.039575	0.812888	0.179498
	O544	O	-0.011661	0.894217	0.169830
	C545	C	0.931342	0.398810	0.178835
	C546	C	0.905567	0.396854	0.188467
	C547	C	0.886324	0.419503	0.193661
	C548	C	0.893087	0.444382	0.190050
	C549	C	0.919475	0.447634	0.182658
	C550	C	0.938373	0.424508	0.176285
	C551	C	0.904017	0.367813	0.190287
	C552	C	0.946854	0.369833	0.171889
	N553	N	0.929171	0.351732	0.178520
	O554	O	0.969491	0.361768	0.162120
	O555	O	0.886192	0.359432	0.201107
	C556	C	0.868309	0.463905	0.195936
	C557	C	0.856944	0.421433	0.200559
	N558	N	0.847223	0.448661	0.201815
	O559	O	0.843201	0.403601	0.203609
	O560	O	0.865493	0.487301	0.195166
	C561	C	0.964412	0.433405	0.167781
	C562	C	0.932665	0.471673	0.177489
	N563	N	0.959778	0.462136	0.169237
	O564	O	0.923333	0.494580	0.179148
	O565	O	0.985590	0.419961	0.160937
	C566	C	0.474914	0.312919	0.184688
	C567	C	0.447857	0.316304	0.179414
	C568	C	0.439521	0.340792	0.175188
	C569	C	0.458502	0.360992	0.175298
	C570	C	0.485718	0.357421	0.180300
	C571	C	0.494011	0.333663	0.185227
	C572	C	0.432576	0.288457	0.175616
	C573	C	0.477589	0.285551	0.189379
	N574	N	0.451604	0.270300	0.181024
	O575	O	0.496897	0.277702	0.199737
	O576	O	0.409087	0.281104	0.168621
	C577	C	0.444405	0.384017	0.169041
	C578	C	0.412344	0.350041	0.168289
	N579	N	0.416717	0.376446	0.165216
	O580	O	0.390688	0.338580	0.165773
	O581	O	0.453567	0.404819	0.166662
	C582	C	0.524138	0.334149	0.186748
	C583	C	0.509958	0.374253	0.179114
	N584	N	0.532450	0.358985	0.182627
	O585	O	0.511364	0.396006	0.175202
	O586	O	0.539160	0.317113	0.189768
	C587	C	0.514923	0.645640	0.158768
	C588	C	0.506624	0.669738	0.154431
	C589	C	0.525722	0.690173	0.154425
	C590	C	0.552777	0.686880	0.159849
	C591	C	0.561095	0.662725	0.164667
	C592	C	0.542146	0.641796	0.163293
	C593	C	0.476488	0.668751	0.152062
	C594	C	0.490682	0.628525	0.159477
	N595	N	0.468179	0.643718	0.155851
	O596	O	0.489277	0.606626	0.163141
	O597	O	0.461455	0.685618	0.148754
	C598	C	0.568032	0.714779	0.163711
	C599	C	0.523034	0.717457	0.149598
	N600	N	0.548997	0.732786	0.158049
	O601	O	0.503731	0.725196	0.139080
	O602	O	0.591501	0.722270	0.170924
	C603	C	0.556230	0.619030	0.170000
	C604	C	0.588287	0.653142	0.170993
	N605	N	0.583915	0.626655	0.173926
	O606	O	0.609949	0.664464	0.173270
	O607	O	0.547059	0.598348	0.172576
	F608	F	0.942488	0.822856	0.089347
	C609	C	0.929927	0.848624	0.126356
	C610	C	0.906735	0.862092	0.122787
	F611	F	0.896879	0.849008	0.082327
	C612	C	0.893854	0.889766	0.161421
	C613	C	0.902853	0.900300	0.202661
	F614	F	0.889243	0.924213	0.239076
	C615	C	0.925885	0.886608	0.206207
	F616	F	0.934195	0.896952	0.245884
	C617	C	0.940695	0.862464	0.168575
	F618	F	0.118550	0.930614	0.245033
	C619	C	0.118781	0.926261	0.208106
	C620	C	0.134450	0.949418	0.208494
	F621	F	0.149217	0.975934	0.245764
	C622	C	0.134625	0.945434	0.170278
	C623	C	0.120853	0.915736	0.130527
	F624	F	0.122734	0.909958	0.092762
	C625	C	0.104900	0.892911	0.130329
	F626	F	0.090976	0.865491	0.092550
	C627	C	0.102741	0.898897	0.169762
	F628	F	0.907195	0.284966	0.102928
	C629	C	0.923707	0.286877	0.131883
	C630	C	0.929440	0.255753	0.123547
	F631	F	0.918422	0.224349	0.086676
	C632	C	0.946658	0.256854	0.153114
	C633	C	0.957864	0.290185	0.191532
	F634	F	0.974230	0.292247	0.220745
	C635	C	0.952102	0.321326	0.199911
	F636	F	0.962984	0.352843	0.236840
	C637	C	0.934951	0.320153	0.170237
	F638	F	0.823699	0.504138	0.281920
	C639	C	0.808430	0.483618	0.243379
	C640	C	0.781311	0.489782	0.243926
	F641	F	0.771040	0.517078	0.282802
	C642	C	0.764796	0.467858	0.204200
	C643	C	0.776380	0.440639	0.163675
	F644	F	0.761102	0.420034	0.125107
	C645	C	0.803540	0.434889	0.163017
	F646	F	0.814247	0.408882	0.123833
	C647	C	0.819886	0.455996	0.202926
	F648	F	0.568166	0.402501	0.258634
	C649	C	0.575048	0.392355	0.219660
	C650	C	0.597912	0.407421	0.218615
	F651	F	0.612774	0.432271	0.256641
	C652	C	0.605416	0.397350	0.178281
	C653	C	0.591155	0.368878	0.138155
	F654	F	0.599563	0.356366	0.098728
	C655	C	0.568077	0.354101	0.139213
	F656	F	0.554209	0.327483	0.100764
	C657	C	0.558849	0.367335	0.180343
	F658	F	0.407586	0.209011	0.219132
	C659	C	0.423246	0.207712	0.191879
	C660	C	0.429389	0.239010	0.200531
	F661	F	0.419531	0.269920	0.235881
	C662	C	0.445889	0.238638	0.172946
	C663	C	0.456077	0.205874	0.136342
	F664	F	0.471950	0.204466	0.109213
	C665	C	0.449874	0.174559	0.127611
	F666	F	0.459921	0.143671	0.092499
	C667	C	0.433256	0.174930	0.155062
	F668	F	0.617609	0.578325	0.105512
	C669	C	0.618340	0.582160	0.142110
	C670	C	0.633297	0.559309	0.143303
	F671	F	0.646714	0.533373	0.107646
	C672	C	0.634199	0.563025	0.181392
	C673	C	0.621800	0.592109	0.219589
	F674	F	0.624429	0.597806	0.257539
	C675	C	0.606421	0.614473	0.218034
	F676	F	0.593751	0.641261	0.254142
	C677	C	0.603519	0.608713	0.178497
	F678	F	0.592884	0.794056	0.119812
	C679	C	0.577266	0.795367	0.147116
	C680	C	0.571162	0.764073	0.138493
	F681	F	0.581274	0.733246	0.103445
	C682	C	0.554651	0.764429	0.166053
	C683	C	0.544277	0.797135	0.202435
	F684	F	0.528467	0.798560	0.229641
	C685	C	0.550382	0.828428	0.211062
	F686	F	0.540301	0.859298	0.246147
	C687	C	0.567076	0.828096	0.183719
	C688	C	0.805181	0.980457	0.175455
	C689	C	0.810078	0.953969	0.177102
	C690	C	0.835522	0.939831	0.169215
	C691	C	0.855746	0.952483	0.159795
	C692	C	0.850798	0.979120	0.158039
	C693	C	0.825703	0.993365	0.166241
	C694	C	0.784758	0.946465	0.188879
	C695	C	0.776257	0.989549	0.183993
	N696	N	0.765071	0.968315	0.191958
	O697	O	0.763865	1.009851	0.183567
	O698	O	0.780950	0.926256	0.194860
	C699	C	0.880727	0.933363	0.153621
	C700	C	0.847148	0.912743	0.170683
	N701	N	0.874281	0.909493	0.159997
	O702	O	0.836836	0.896990	0.180038
	O703	O	0.902557	0.936728	0.145551
	C704	C	0.826756	1.022052	0.163539
	C705	C	0.869022	0.998872	0.151379
	N706	N	0.853517	1.024420	0.155282
	O707	O	0.892310	0.995498	0.144503
	O708	O	0.809426	1.040206	0.167217
	C709	C	0.189587	0.043379	0.151512
	C710	C	0.194642	0.017465	0.154151
	C711	C	0.174028	0.004211	0.162764
	C712	C	0.148712	0.017629	0.169482
	C713	C	0.143951	0.044999	0.169032
	C714	C	0.164175	0.057623	0.159573
	C715	C	0.223578	0.008424	0.145685
	C716	C	0.215088	0.051576	0.140915
	N717	N	0.234822	0.029912	0.138146
	O718	O	0.218997	0.072172	0.135585
	O719	O	0.235947	-0.011986	0.145927
	C720	C	0.130498	-0.002088	0.176198
	C721	C	0.172847	-0.024958	0.164593
	N722	N	0.146008	-0.027628	0.172296
	O723	O	0.190150	-0.043215	0.160737
	O724	O	0.107212	0.001298	0.183086
	C725	C	0.152520	0.084546	0.157817
	C726	C	0.118816	0.063501	0.174142
	N727	N	0.125295	0.087461	0.167928
	O728	O	0.096875	0.059693	0.181439
	O729	O	0.162872	0.100402	0.148638
	C730	C	0.958403	0.134301	0.150579
	C731	C	0.939615	0.154038	0.149316
	C732	C	0.948053	0.179254	0.146618
	C733	C	0.975001	0.183874	0.144202
	C734	C	0.993998	0.164951	0.147383
	C735	C	0.985634	0.140460	0.150822
	C736	C	0.912409	0.142598	0.151466
	C737	C	0.944177	0.110417	0.154891
	N738	N	0.916569	0.116296	0.154827
	O739	O	0.953157	0.090171	0.158562
	O740	O	0.890858	0.152500	0.150543
	C741	C	0.977792	0.211821	0.140598
	C742	C	0.932958	0.205808	0.147768
	N743	N	0.952012	0.225320	0.145252
	O744	O	0.909576	0.211343	0.150986
	O745	O	0.996991	0.221236	0.133414
	C746	C	1.009838	0.124492	0.154141
	C747	C	1.024114	0.165840	0.149038
	N748	N	1.032383	0.141194	0.153697
	O749	O	1.039192	0.183722	0.147879
	O750	O	1.011195	0.102357	0.157437
	C751	C	0.648091	0.490186	0.181402
	C752	C	0.673916	0.503583	0.188383
	C753	C	0.695280	0.488795	0.194467
	C754	C	0.690540	0.461443	0.194531
	C755	C	0.664327	0.448760	0.188967
	C756	C	0.643294	0.462830	0.181823
	C757	C	0.672645	0.533011	0.187016
	C758	C	0.629320	0.511047	0.176597
	N759	N	0.645190	0.536493	0.180489
	O760	O	0.605453	0.508386	0.170923
	O761	O	0.690311	0.550857	0.190308
	C762	C	0.717038	0.451159	0.201622
	C763	C	0.724991	0.496124	0.200084
	N764	N	0.736993	0.472586	0.204069
	O765	O	0.737311	0.516808	0.200369
	O766	O	0.721561	0.429116	0.204419
	C767	C	0.617837	0.443562	0.175045
	C768	C	0.652851	0.420647	0.188560
	N769	N	0.624830	0.418317	0.179065
	O770	O	0.663887	0.403671	0.196062
	O771	O	0.595360	0.447554	0.167869
	C772	C	0.436960	0.070702	0.149019
	C773	C	0.417711	0.048194	0.144054
	C774	C	0.390778	0.050669	0.135609
	C775	C	0.383466	0.074929	0.130998
	C776	C	0.402853	0.098096	0.136838
	C777	C	0.429419	0.096324	0.146473
	C778	C	0.431543	0.024434	0.149531
	C779	C	0.463662	0.062802	0.158949
	N780	N	0.459172	0.034441	0.158250
	O781	O	0.485189	0.076695	0.166263
	O782	O	0.422289	0.001428	0.147792
	C783	C	0.353553	0.072165	0.123295
	C784	C	0.365792	0.031455	0.130837
	N785	N	0.344054	0.045798	0.123873
	O786	O	0.363333	0.009027	0.133399
	O787	O	0.339241	0.088641	0.118255
	C788	C	0.445285	0.125240	0.153238
	C789	C	0.401076	0.126761	0.134309
	N790	N	0.427019	0.143136	0.146360
	O791	O	0.382464	0.134864	0.123035
	O792	O	0.468618	0.133441	0.163106
	C793	C	0.616813	0.927385	0.206289
	C794	C	0.609457	0.951486	0.201426
	C795	C	0.582469	0.954302	0.193681
	C796	C	0.563204	0.932176	0.189469
	C797	C	0.570778	0.906659	0.192190
	C798	C	0.597358	0.904942	0.201832
	C799	C	0.634469	0.970005	0.204885
	C800	C	0.646771	0.929727	0.213143
	N801	N	0.656255	0.955513	0.211510
	O802	O	0.661121	0.913368	0.218335
	O803	O	0.636896	0.992020	0.201602
	C804	C	0.536457	0.940172	0.179794
	C805	C	0.568606	0.977989	0.188113
	N806	N	0.540939	0.968291	0.180028
	O807	O	0.577866	1.000749	0.189383
	O808	O	0.514907	0.926502	0.172960
	C809	C	0.599247	0.876045	0.203919
	C810	C	0.554924	0.877916	0.185819
	N811	N	0.573266	0.859882	0.192373
	O812	O	0.531549	0.869908	0.176410
	O813	O	0.617977	0.867654	0.214606
	F814	F	0.679360	0.906955	0.130421
	C815	C	0.694617	0.934630	0.165795
	C816	C	0.721415	0.937635	0.160985
	F817	F	0.731777	0.912829	0.121006
	C818	C	0.737668	0.966484	0.197392
	C819	C	0.726136	0.992856	0.238403
	F820	F	0.740843	1.021830	0.272860
	C821	C	0.699456	0.989322	0.243567
	F822	F	0.688988	1.014118	0.283401
	C823	C	0.683361	0.960089	0.207318
	F824	F	0.849974	0.020811	0.081771
	C825	C	0.864851	0.047296	0.118894
	C826	C	0.880606	0.070233	0.118987
	F827	F	0.880609	0.065900	0.082059
	C828	C	0.896764	0.097559	0.157166
	C829	C	0.894747	0.103623	0.196679
	F830	F	0.908783	0.131017	0.234323
	C831	C	0.878817	0.080906	0.196704
	F832	F	0.877100	0.086734	0.234528
	C833	C	0.864893	0.051265	0.157113
	F834	F	0.312288	-0.012910	0.050033
	C835	C	0.301269	0.011108	0.089538
	C836	C	0.274463	0.006831	0.093338
	F837	F	0.260225	-0.022185	0.057951
	C838	C	0.262337	0.032469	0.133962
	C839	C	0.278097	0.061354	0.171312
	F840	F	0.267159	0.085425	0.210930
	C841	C	0.304983	0.065174	0.167790
	F842	F	0.319774	0.092810	0.204077
	C843	C	0.316858	0.040427	0.126712
	F844	F	0.102660	0.147961	0.245386
	C845	C	0.092856	0.134834	0.204882
	C846	C	0.069596	0.148112	0.201171
	F847	F	0.057050	0.173986	0.238137
	C848	C	0.058868	0.134199	0.158898
	C849	C	0.073689	0.109997	0.121301
	F850	F	0.065395	0.099529	0.081550
	C851	C	0.096728	0.096381	0.124966
	F852	F	0.110346	0.072400	0.088591
	C853	C	0.105720	0.107068	0.166295
	F854	F	0.464559	0.042028	0.234271
	C855	C	0.481982	0.022188	0.202357
	C856	C	0.502332	0.006153	0.207756
	F857	F	0.504478	0.010681	0.244904
	C858	C	0.520588	-0.015031	0.174554
	C859	C	0.518116	-0.019448	0.135945
	F860	F	0.535522	-0.039314	0.104010
	C861	C	0.497809	-0.003337	0.130601
	F862	F	0.495612	-0.007930	0.093408
	C863	C	0.479513	0.017770	0.163748
	F864	F	0.230123	0.509411	0.287743
	C865	C	0.220182	0.538770	0.325371
	C866	C	0.193318	0.545508	0.325302
	F867	F	0.177531	0.522446	0.287689
	C868	C	0.182606	0.576338	0.364045
	C869	C	0.199389	0.599928	0.403180
	F870	F	0.189642	0.629684	0.440541
	C871	C	0.226195	0.592850	0.403457
	F872	F	0.241785	0.615197	0.441439
	C873	C	0.237081	0.562667	0.364209
	C874	C	0.081691	0.568418	0.348164
	C875	C	0.062617	0.584006	0.340111
	C876	C	0.070444	0.609610	0.337809
	C877	C	0.097331	0.618871	0.342695
	C878	C	0.116564	0.603201	0.350962
	C879	C	0.108751	0.578262	0.353946
	C880	C	0.035660	0.567794	0.334403
	C881	C	0.067526	0.543342	0.350650
	N882	N	0.040062	0.543067	0.340342
	O883	O	0.076339	0.527162	0.360925
	O884	O	0.014081	0.573475	0.326536
	C885	C	0.099646	0.646891	0.339099
	C886	C	0.054593	0.631067	0.330418
	N887	N	0.073235	0.653548	0.332589
	O888	O	0.030969	0.630807	0.324058
	O889	O	0.119105	0.661755	0.340899
	C890	C	0.133423	0.565320	0.361519
	C891	C	0.146585	0.606898	0.356200
	N892	N	0.155526	0.583497	0.362526
	O893	O	0.161182	0.624982	0.354678
	O894	O	0.135071	0.543691	0.365665
	C895	C	0.334736	0.563413	0.340062
	C896	C	0.355930	0.543060	0.334065
	C897	C	0.352351	0.516551	0.336353
	C898	C	0.327670	0.510677	0.345212
	C899	C	0.306274	0.531496	0.351759
	C900	C	0.309697	0.557202	0.348365
	C901	C	0.380242	0.555674	0.326709
	C902	C	0.344927	0.590499	0.337760
	N903	N	0.372689	0.585210	0.331279
	O904	O	0.333163	0.612557	0.340196
	O905	O	0.402237	0.544165	0.318404
	C906	C	0.330586	0.482132	0.347995
	C907	C	0.371488	0.490953	0.330818
	N908	N	0.357099	0.470218	0.336859
	O909	O	0.394684	0.487516	0.323219
	O910	O	0.314964	0.471444	0.358995
	C911	C	0.283418	0.574237	0.355378
	C912	C	0.277518	0.530999	0.360564
	N913	N	0.264821	0.557267	0.362340
	O914	O	0.266389	0.512406	0.365005
	O915	O	0.277837	0.597113	0.354519
	F916	F	0.066034	0.641423	0.253398
	C917	C	0.062645	0.674394	0.292776
	C918	C	0.055710	0.701779	0.293626
	F919	F	0.052075	0.694924	0.255004
	C920	C	0.052437	0.736603	0.334465
	C921	C	0.056099	0.743302	0.374528
	F922	F	0.052682	0.776266	0.413855
	C923	C	0.063139	0.715971	0.373723
	F924	F	0.066816	0.722960	0.412437
	C925	C	0.066380	0.681131	0.332881
	F926	F	-0.008832	0.429875	0.250142
	C927	C	-0.004476	0.463431	0.289454
	C928	C	0.015620	0.485242	0.294630
	F929	F	0.030799	0.472481	0.260364
	C930	C	0.020047	0.520632	0.335379
	C931	C	0.004213	0.533420	0.371038
	F932	F	0.008510	0.567013	0.410303
	C933	C	-0.015814	0.511568	0.365920
	F934	F	-0.031018	0.524344	0.400165
	C935	C	-0.020303	0.476216	0.325120
	F936	F	0.387060	0.486485	0.408728
	C937	C	0.385977	0.452591	0.369446
	C938	C	0.402102	0.427482	0.364003
	F939	F	0.418570	0.437282	0.398273
	C940	C	0.401514	0.392060	0.322806
	C941	C	0.382751	0.381747	0.288548
	F942	F	0.380724	0.347489	0.250075
	C943	C	0.366488	0.406915	0.294139
	F944	F	0.348573	0.396727	0.261218
	C945	C	0.368948	0.443044	0.333855
	F946	F	0.391696	0.573373	0.257694
	C947	C	0.402815	0.600168	0.298902
	C948	C	0.425782	0.618609	0.304425
	F949	F	0.437251	0.609025	0.268340
	C950	C	0.437202	0.647030	0.347631
	C951	C	0.423120	0.659544	0.384867
	F952	F	0.431283	0.690100	0.425836
	C953	C	0.400952	0.640057	0.379436
	F954	F	0.388751	0.650764	0.415573
	C955	C	0.391476	0.608922	0.336377
	C956	C	0.039790	0.846126	0.313596
	C957	C	0.058415	0.831523	0.323750
	C958	C	0.049900	0.807135	0.327780
	C959	C	0.022823	0.798890	0.323701
	C960	C	0.003934	0.815648	0.316639
	C961	C	0.012473	0.838306	0.310267
	C962	C	0.085729	0.846632	0.328314
	C963	C	0.054517	0.869875	0.309459
	N964	N	0.081880	0.870249	0.320418
	O965	O	0.046137	0.885170	0.297666
	O966	O	0.107085	0.841223	0.337166
	C967	C	0.019863	0.772409	0.329814
	C968	C	0.065242	0.785158	0.334797
	N969	N	0.046099	0.764365	0.334863
	O970	O	0.088863	0.783717	0.339151
	O971	O	0.000095	0.759499	0.330656
	C972	C	-0.011759	0.851822	0.302696
	C973	C	-0.026217	0.814093	0.313670
	N974	N	-0.034368	0.837385	0.306710
	O975	O	-0.041336	0.797547	0.317009
	O976	O	-0.012857	0.871048	0.294617
	C977	C	0.929139	0.387743	0.323429
	C978	C	0.902220	0.378923	0.319251
	C979	C	0.882955	0.395437	0.312375
	C980	C	0.890816	0.420019	0.308804
	C981	C	0.917919	0.429386	0.313830
	C982	C	0.936977	0.413700	0.321754
	C983	C	0.899883	0.350696	0.322484
	C984	C	0.944991	0.365797	0.330006
	N985	N	0.926310	0.343485	0.328081
	O986	O	0.968645	0.365605	0.335633
	O987	O	0.880401	0.336068	0.321065
	C988	C	0.866152	0.433368	0.301863
	C989	C	0.852930	0.391859	0.307265
	N990	N	0.844013	0.415484	0.301295
	O991	O	0.838312	0.373739	0.308697
	O992	O	0.864527	0.455105	0.297899
	C993	C	0.964022	0.429109	0.326145
	C994	C	0.932115	0.454144	0.310833
	N995	N	0.959646	0.453850	0.320227
	O996	O	0.923272	0.470473	0.300796
	O997	O	0.985641	0.422939	0.333207
	C998	C	0.479408	0.300594	0.327317
	C999	C	0.452421	0.307055	0.327552
	C1000	C	0.443957	0.330997	0.322526
	C1001	C	0.462502	0.347070	0.315383
	C1002	C	0.489770	0.341416	0.316526
	C1003	C	0.498275	0.318454	0.322719
	C1004	C	0.437047	0.283872	0.332036
	C1005	C	0.482312	0.273937	0.333229
	N1006	N	0.456073	0.264076	0.334353
	O1007	O	0.502029	0.262107	0.336542
	O1008	O	0.413475	0.280897	0.333108
	C1009	C	0.447821	0.370090	0.309545
	C1010	C	0.416759	0.344138	0.322998
	N1011	N	0.420610	0.368317	0.316170
	O1012	O	0.395469	0.336955	0.328225
	O1013	O	0.456103	0.386318	0.299502
	C1014	C	0.528419	0.319253	0.324674
	C1015	C	0.513953	0.356219	0.311933
	N1016	N	0.536584	0.343218	0.319101
	O1017	O	0.515037	0.375320	0.303708
	O1018	O	0.543540	0.303840	0.330376
	C1019	C	0.510403	0.661960	0.356254
	C1020	C	0.501897	0.684941	0.350093
	C1021	C	0.520763	0.702788	0.345471
	C1022	C	0.547750	0.696323	0.345230
	C1023	C	0.556252	0.672746	0.350856
	C1024	C	0.537669	0.656338	0.357454
	C1025	C	0.471751	0.684063	0.348023
	C1026	C	0.486220	0.647001	0.360609
	N1027	N	0.463591	0.660012	0.353461
	O1028	O	0.485139	0.627773	0.368639
	O1029	O	0.456627	0.699478	0.342329
	C1030	C	0.563124	0.719454	0.340664
	C1031	C	0.517856	0.729347	0.339395
	N1032	N	0.544096	0.739194	0.338248
	O1033	O	0.498138	0.741131	0.336002
	O1034	O	0.586696	0.722436	0.339609
	C1035	C	0.552338	0.633224	0.363140
	C1036	C	0.583387	0.659131	0.349604
	N1037	N	0.579525	0.634888	0.356327
	O1038	O	0.604642	0.666064	0.343973
	O1039	O	0.544072	0.617024	0.373234
	F1040	F	0.930805	0.805392	0.230357
	C1041	C	0.923913	0.835391	0.270489
	C1042	C	0.901697	0.853356	0.273350
	F1043	F	0.888048	0.841640	0.235744
	C1044	C	0.893622	0.883958	0.315365
	C1045	C	0.906635	0.893863	0.354247
	F1046	F	0.897009	0.920223	0.394250
	C1047	C	0.929543	0.876887	0.351383
	F1048	F	0.942449	0.887488	0.388920
	C1049	C	0.939432	0.848950	0.309399
	F1050	F	0.084714	0.940046	0.401942
	C1051	C	0.100854	0.931128	0.370330
	C1052	C	0.116738	0.957507	0.377654
	F1053	F	0.115768	0.991585	0.416143
	C1054	C	0.133458	0.948994	0.344894
	C1055	C	0.135707	0.912840	0.306348
	F1056	F	0.153242	0.903805	0.276365
	C1057	C	0.119583	0.886393	0.298758
	F1058	F	0.121439	0.852069	0.261326
	C1059	C	0.101126	0.895454	0.329819
	F1060	F	0.932465	0.273997	0.248100
	C1061	C	0.936344	0.281006	0.286805
	C1062	C	0.943375	0.253640	0.285942
	F1063	F	0.946735	0.220674	0.246590
	C1064	C	0.947113	0.260305	0.325973
	C1065	C	0.943841	0.295112	0.366840
	F1066	F	0.947507	0.301924	0.405428
	C1067	C	0.936842	0.322509	0.367745
	F1068	F	0.933580	0.355503	0.407172
	C1069	C	0.933114	0.315831	0.327678
	F1070	F	0.823141	0.476790	0.377454
	C1071	C	0.806853	0.454295	0.340359
	C1072	C	0.780006	0.461564	0.341603
	F1073	F	0.770640	0.491045	0.379831
	C1074	C	0.762582	0.438239	0.303349
	C1075	C	0.772895	0.408008	0.263406
	F1076	F	0.756782	0.386148	0.225997
	C1077	C	0.799682	0.400366	0.262385
	F1078	F	0.808903	0.370644	0.224309
	C1079	C	0.816984	0.423349	0.300951
	F1080	F	0.563037	0.394286	0.404096
	C1081	C	0.574508	0.384491	0.367902
	C1082	C	0.597439	0.402908	0.373253
	F1083	F	0.608659	0.429673	0.414391
	C1084	C	0.608776	0.393949	0.335659
	C1085	C	0.599231	0.362773	0.292682
	F1086	F	0.611400	0.351898	0.256440
	C1087	C	0.577029	0.343417	0.287432
	F1088	F	0.568786	0.312837	0.246544
	C1089	C	0.562988	0.356090	0.324769
	F1090	F	0.433475	0.221687	0.408225
	C1091	C	0.437831	0.214632	0.370172
	C1092	C	0.445334	0.242455	0.372195
	F1093	F	0.448757	0.275882	0.412105
	C1094	C	0.449458	0.235791	0.332787
	C1095	C	0.446167	0.200526	0.291398
	F1096	F	0.450253	0.193708	0.253426
	C1097	C	0.438702	0.172669	0.289357
	F1098	F	0.435335	0.139232	0.249427
	C1099	C	0.434591	0.179341	0.328798
	F1100	F	0.581395	0.565976	0.274095
	C1101	C	0.597935	0.575662	0.308233
	C1102	C	0.613897	0.550409	0.302731
	F1103	F	0.612759	0.516546	0.263389
	C1104	C	0.631009	0.559860	0.338192
	C1105	C	0.633583	0.595971	0.377935
	F1106	F	0.651558	0.606047	0.410730
	C1107	C	0.617369	0.621234	0.383674
	F1108	F	0.619467	0.655467	0.422197
	C1109	C	0.598579	0.611042	0.349510
	F1110	F	0.566675	0.781424	0.264195
	C1111	C	0.562410	0.788512	0.302294
	C1112	C	0.554743	0.760760	0.300316
	F1113	F	0.551308	0.727318	0.260439
	C1114	C	0.550715	0.767454	0.339767
	C1115	C	0.554041	0.802730	0.381131
	F1116	F	0.550125	0.809568	0.419160
	C1117	C	0.561550	0.830542	0.383107
	F1118	F	0.565115	0.863952	0.423023
	C1119	C	0.565677	0.823817	0.343637
	C1120	C	0.804213	0.959779	0.301441
	C1121	C	0.808899	0.933833	0.304184
	C1122	C	0.835016	0.927267	0.310426
	C1123	C	0.856112	0.947881	0.315717
	C1124	C	0.851473	0.973772	0.312548
	C1125	C	0.825727	0.979390	0.304592
	C1126	C	0.782426	0.918272	0.301428
	C1127	C	0.774478	0.960532	0.294924
	N1128	N	0.762484	0.935393	0.295955
	O1129	O	0.762077	0.978512	0.290289
	O1130	O	0.777761	0.896427	0.304418
	C1131	C	0.881568	0.935587	0.322233
	C1132	C	0.846307	0.900841	0.313374
	N1133	N	0.874527	0.906241	0.318446
	O1134	O	0.835001	0.879146	0.312250
	O1135	O	0.904003	0.947312	0.329620
	C1136	C	0.827477	1.008188	0.302110
	C1137	C	0.870323	0.999763	0.317855
	N1138	N	0.854762	1.020258	0.312136
	O1139	O	0.894091	1.003921	0.325524
	O1140	O	0.810450	1.018886	0.291886
	C1141	C	0.190716	0.064191	0.358412
	C1142	C	0.195302	0.038770	0.362112
	C1143	C	0.173841	0.018282	0.357317
	C1144	C	0.148202	0.023231	0.348081
	C1145	C	0.143514	0.049898	0.346324
	C1146	C	0.164644	0.070370	0.351396
	C1147	C	0.224993	0.038331	0.369342
	C1148	C	0.217179	0.080711	0.363008
	N1149	N	0.237042	0.063937	0.369206
	O1150	O	0.221918	0.102974	0.360773
	O1151	O	0.237322	0.020259	0.373894
	C1152	C	0.129331	-0.002743	0.342779
	C1153	C	0.172056	-0.010584	0.359674
	N1154	N	0.144848	-0.023052	0.348866
	O1155	O	0.188999	-0.021080	0.370303
	O1156	O	0.105587	-0.007041	0.334822
	C1157	C	0.153354	0.097133	0.349058
	C1158	C	0.118133	0.061727	0.338871
	N1159	N	0.125154	0.091339	0.343189
	O1160	O	0.095765	0.049557	0.330583
	O1161	O	0.164657	0.119300	0.351083
	C1162	C	0.959847	0.150706	0.346728
	C1163	C	0.941174	0.165925	0.337576
	C1164	C	0.949689	0.190252	0.333447
	C1165	C	0.976790	0.197883	0.336500
	C1166	C	0.995670	0.181974	0.344939
	C1167	C	0.987140	0.158998	0.350805
	C1168	C	0.913888	0.150478	0.332453
	C1169	C	0.945098	0.127228	0.351290
	N1170	N	0.917734	0.126848	0.340329
	O1171	O	0.953463	0.112111	0.363340
	O1172	O	0.892559	0.155697	0.323280
	C1173	C	0.979732	0.224604	0.330775
	C1174	C	0.934357	0.211771	0.325671
	N1175	N	0.953491	0.232525	0.325529
	O1176	O	0.910743	0.212951	0.320894
	O1177	O	0.999497	0.237724	0.330274
	C1178	C	1.011374	0.145445	0.358313
	C1179	C	1.025823	0.183130	0.347264
	N1180	N	1.033979	0.159852	0.354249
	O1181	O	1.040936	0.199430	0.343527
	O1182	O	1.012471	0.126212	0.366382
	C1183	C	0.647714	0.486181	0.335324
	C1184	C	0.672268	0.491816	0.325883
	C1185	C	0.693690	0.470974	0.319156
	C1186	C	0.690194	0.444623	0.321398
	C1187	C	0.665378	0.439011	0.330951
	C1188	C	0.644234	0.459679	0.337649
	C1189	C	0.669310	0.520544	0.323442
	C1190	C	0.628568	0.511923	0.341223
	N1191	N	0.642868	0.532616	0.335025
	O1192	O	0.605424	0.515463	0.349140
	O1193	O	0.684857	0.531266	0.312392
	C1194	C	0.716479	0.427486	0.314004
	C1195	C	0.722193	0.470752	0.308828
	N1196	N	0.734913	0.444220	0.306469
	O1197	O	0.733114	0.489065	0.303764
	O1198	O	0.722170	0.404660	0.314905
	C1199	C	0.620044	0.447287	0.345543
	C1200	C	0.655244	0.411882	0.333218
	N1201	N	0.627579	0.417551	0.340549
	O1202	O	0.666986	0.389539	0.330189
	O1203	O	0.598140	0.459076	0.354483
	C1204	C	0.437712	0.082611	0.336775
	C1205	C	0.419013	0.067960	0.345765
	C1206	C	0.392185	0.076849	0.349044
	C1207	C	0.384377	0.100552	0.343743
	C1208	C	0.403474	0.116691	0.336915
	C1209	C	0.429980	0.107436	0.332895
	C1210	C	0.433218	0.043822	0.350213
	C1211	C	0.464475	0.067981	0.334516
	N1212	N	0.460266	0.044018	0.341576
	O1213	O	0.485801	0.074305	0.328306
	O1214	O	0.424732	0.027992	0.360691
	C1215	C	0.354727	0.104683	0.348530
	C1216	C	0.367756	0.064811	0.357164
	N1217	N	0.345902	0.082535	0.356544
	O1218	O	0.366136	0.044371	0.363218
	O1219	O	0.340283	0.122244	0.345580
	C1220	C	0.445789	0.129329	0.326729
	C1221	C	0.401187	0.143924	0.331921
	N1222	N	0.427421	0.151256	0.327368
	O1223	O	0.381866	0.157875	0.331590
	O1224	O	0.469188	0.129775	0.322249
	C1225	C	0.615754	0.902095	0.327746
	C1226	C	0.607895	0.925699	0.322301
	C1227	C	0.581098	0.934793	0.325966
	C1228	C	0.562460	0.920321	0.335281
	C1229	C	0.570177	0.895239	0.338717
	C1230	C	0.596775	0.886516	0.335548
	C1231	C	0.632232	0.937317	0.313448
	C1232	C	0.645374	0.897792	0.322618
	N1233	N	0.654094	0.919540	0.313934
	O1234	O	0.659867	0.880378	0.325762
	O1235	O	0.633774	0.957461	0.306910
	C1236	C	0.535677	0.934905	0.337522
	C1237	C	0.566867	0.958979	0.321623
	N1238	N	0.539850	0.958868	0.330453
	O1239	O	0.575316	0.974806	0.311120
	O1240	O	0.514362	0.928534	0.343702
	C1241	C	0.599053	0.859006	0.340070
	C1242	C	0.554489	0.873872	0.345812
	N1243	N	0.572858	0.851866	0.345003
	O1244	O	0.531166	0.873809	0.351004
	O1245	O	0.618348	0.844761	0.339862
	F1246	F	0.679206	0.866721	0.234290
	C1247	C	0.693092	0.896954	0.268074
	C1248	C	0.719568	0.901384	0.263104
	F1249	F	0.730591	0.876159	0.223970
	C1250	C	0.734892	0.931952	0.298829
	C1251	C	0.722745	0.958561	0.339003
	F1252	F	0.737012	0.988112	0.373472
	C1253	C	0.696109	0.954557	0.343565
	F1254	F	0.684883	0.980372	0.382261
	C1255	C	0.680938	0.923649	0.308261
	F1256	F	0.884089	0.005465	0.245008
	C1257	C	0.882942	0.039598	0.283304
	C1258	C	0.898911	0.065922	0.290642
	F1259	F	0.915105	0.056942	0.259059
	C1260	C	0.898489	0.101659	0.330969
	C1261	C	0.879929	0.110780	0.361930
	F1262	F	0.877940	0.145146	0.399169
	C1263	C	0.863835	0.084355	0.354442
	F1264	F	0.846255	0.093445	0.384391
	C1265	C	0.866160	0.048173	0.316033
	F1266	F	0.316030	0.021458	0.286456
	C1267	C	0.304253	0.046672	0.324790
	C1268	C	0.277476	0.042040	0.327981
	F1269	F	0.263661	0.012423	0.292643
	C1270	C	0.264726	0.068067	0.367688
	C1271	C	0.279582	0.098719	0.404332
	F1272	F	0.267986	0.123355	0.443058
	C1273	C	0.306180	0.103858	0.400679
	F1274	F	0.319652	0.134132	0.435380
	C1275	C	0.318942	0.077722	0.360970
	F1276	F	0.111269	0.155704	0.425779
	C1277	C	0.097823	0.144075	0.388067
	C1278	C	0.075546	0.161887	0.390765
	F1279	F	0.068563	0.191880	0.430828
	C1280	C	0.060193	0.148375	0.351735
	C1281	C	0.070244	0.120549	0.309851
	F1282	F	0.057490	0.109975	0.272229
	C1283	C	0.093168	0.103664	0.307166
	F1284	F	0.102952	0.077432	0.267252
	C1285	C	0.106029	0.113534	0.346125
	F1286	F	0.494473	0.069740	0.415208
	C1287	C	0.497230	0.036271	0.376379
	C1288	C	0.517037	0.015420	0.373466
	F1289	F	0.533361	0.028923	0.409548
	C1290	C	0.520016	-0.019764	0.333123
	C1291	C	0.502850	-0.033406	0.295679
	F1292	F	0.505546	-0.066915	0.256893
	C1293	C	0.483099	-0.012517	0.298550
	F1294	F	0.466719	-0.026057	0.262511
	C1295	C	0.480085	0.022643	0.338921
	F1296	F	0.230665	0.481968	0.385450
	C1297	C	0.219852	0.509595	0.423454
	C1298	C	0.192714	0.515162	0.422595
	F1299	F	0.177920	0.493588	0.383589
	C1300	C	0.180687	0.543065	0.462194
	C1301	C	0.196524	0.565232	0.502636
	F1302	F	0.185270	0.591552	0.541046
	C1303	C	0.223737	0.560211	0.503307
	F1304	F	0.238521	0.581849	0.542358
	C1305	C	0.235878	0.532647	0.463636
	C1306	C	0.080750	0.549442	0.478753
	C1307	C	0.061764	0.572269	0.484581
	C1308	C	0.068809	0.598053	0.482187
	C1309	C	0.094702	0.600433	0.473323
	C1310	C	0.114102	0.578409	0.469282
	C1311	C	0.107173	0.552848	0.471642
	C1312	C	0.035639	0.563027	0.492455
	C1313	C	0.067490	0.525117	0.483399
	N1314	N	0.040292	0.534327	0.491054
	O1315	O	0.076829	0.502230	0.481772
	O1316	O	0.014389	0.576212	0.498826
	C1317	C	0.096260	0.629580	0.471692
	C1318	C	0.053188	0.626772	0.488683
	N1319	N	0.070931	0.645192	0.482615
	O1320	O	0.030428	0.634457	0.497789
	O1321	O	0.114227	0.638349	0.461555
	C1322	C	0.132122	0.534156	0.467316
	C1323	C	0.143520	0.576607	0.462673
	N1324	N	0.153283	0.549663	0.461959
	O1325	O	0.157282	0.594349	0.459501
	O1326	O	0.134990	0.511153	0.468801
	C1327	C	0.336289	0.553726	0.482513
	C1328	C	0.357237	0.540371	0.490935
	C1329	C	0.352468	0.512774	0.490920
	C1330	C	0.326671	0.499141	0.483504
	C1331	C	0.305313	0.513880	0.477335
	C1332	C	0.310097	0.540762	0.476423
	C1333	C	0.382734	0.559317	0.497130
	C1334	C	0.347800	0.581578	0.482467
	N1335	N	0.375787	0.584158	0.492388
	O1336	O	0.336815	0.598215	0.474395
	O1337	O	0.405201	0.555403	0.504450
	C1338	C	0.327932	0.469738	0.484915
	C1339	C	0.371223	0.492068	0.496020
	N1340	N	0.355365	0.466470	0.491841
	O1341	O	0.395070	0.494926	0.502078
	O1342	O	0.310273	0.451762	0.481375
	C1343	C	0.283671	0.550264	0.467923
	C1344	C	0.275669	0.505700	0.470176
	N1345	N	0.263719	0.528636	0.465108
	O1346	O	0.263346	0.484875	0.469631
	O1347	O	0.279198	0.571885	0.464369
	F1348	F	0.036933	0.643735	0.424143
	C1349	C	0.047735	0.675336	0.461037
	C1350	C	0.041918	0.706357	0.469154
	F1351	F	0.025539	0.704096	0.439794
	C1352	C	0.053042	0.739776	0.507501
	C1353	C	0.070255	0.741085	0.537247
	F1354	F	0.081090	0.772613	0.574171
	C1355	C	0.076182	0.710048	0.529015
	F1356	F	0.092647	0.712175	0.558188
	C1357	C	0.065006	0.676681	0.490745
	F1358	F	-0.036763	0.453773	0.426208
	C1359	C	-0.018712	0.475456	0.460807
	C1360	C	0.001346	0.493063	0.458106
	F1361	F	0.002571	0.488213	0.420887
	C1362	C	0.020281	0.516174	0.494048
	C1363	C	0.018788	0.520941	0.532725
	F1364	F	0.036810	0.542671	0.567360
	C1365	C	-0.001230	0.503266	0.535380
	F1366	F	-0.002519	0.508205	0.572653
	C1367	C	-0.020202	0.480223	0.499483
	F1368	F	0.353687	0.469461	0.564563
	C1369	C	0.367153	0.443565	0.528958
	C1370	C	0.382240	0.420865	0.530277
	F1371	F	0.382861	0.424595	0.566794
	C1372	C	0.397105	0.394351	0.493932
	C1373	C	0.394252	0.388616	0.454408
	F1374	F	0.406990	0.361894	0.418348
	C1375	C	0.378847	0.410938	0.452810
	F1376	F	0.376272	0.405278	0.414884
	C1377	C	0.366365	0.439948	0.490948
	F1378	F	0.388070	0.569941	0.414701
	C1379	C	0.402791	0.594990	0.452817
	C1380	C	0.425713	0.610012	0.451834
	F1381	F	0.432658	0.599897	0.412906
	C1382	C	0.441776	0.635228	0.491258
	C1383	C	0.432438	0.648520	0.532349
	F1384	F	0.446196	0.675260	0.570862
	C1385	C	0.409363	0.633686	0.533316
	F1386	F	0.400852	0.646265	0.572719
	C1387	C	0.395212	0.605093	0.493135
	C1388	C	0.041124	0.862007	0.509490
	C1389	C	0.059979	0.842859	0.511759
	C1390	C	0.051570	0.817692	0.514556
	C1391	C	0.024575	0.812534	0.516047
	C1392	C	0.005612	0.832275	0.514327
	C1393	C	0.013952	0.856739	0.510828
	C1394	C	0.087129	0.853808	0.508711
	C1395	C	0.055336	0.885997	0.505340
	N1396	N	0.082938	0.880026	0.505212
	O1397	O	0.046348	0.906325	0.501819
	O1398	O	0.108669	0.843652	0.509151
	C1399	C	0.021847	0.784763	0.519974
	C1400	C	0.066650	0.790754	0.512655
	N1401	N	0.047623	0.771202	0.515146
	O1402	O	0.090000	0.785026	0.509012
	O1403	O	0.002705	0.775495	0.527454
	C1404	C	-0.010281	0.872270	0.506781
	C1405	C	-0.024518	0.830959	0.511972
	N1406	N	-0.032812	0.855484	0.507113
	O1407	O	-0.039575	0.812888	0.512831
	O1408	O	-0.011661	0.894217	0.503163
	C1409	C	0.931342	0.398810	0.512169
	C1410	C	0.905567	0.396854	0.521800
	C1411	C	0.886324	0.419503	0.526995
	C1412	C	0.893087	0.444382	0.523383
	C1413	C	0.919475	0.447634	0.515992
	C1414	C	0.938373	0.424508	0.509618
	C1415	C	0.904017	0.367813	0.523620
	C1416	C	0.946854	0.369833	0.505223
	N1417	N	0.929171	0.351732	0.511853
	O1418	O	0.969491	0.361768	0.495453
	O1419	O	0.886192	0.359432	0.534441
	C1420	C	0.868309	0.463905	0.529270
	C1421	C	0.856944	0.421433	0.533893
	N1422	N	0.847223	0.448661	0.535148
	O1423	O	0.843201	0.403601	0.536942
	O1424	O	0.865493	0.487301	0.528500
	C1425	C	0.964412	0.433405	0.501114
	C1426	C	0.932665	0.471673	0.510822
	N1427	N	0.959778	0.462136	0.502570
	O1428	O	0.923333	0.494580	0.512481
	O1429	O	0.985590	0.419961	0.494270
	C1430	C	0.474914	0.312919	0.518021
	C1431	C	0.447857	0.316304	0.512747
	C1432	C	0.439521	0.340792	0.508521
	C1433	C	0.458502	0.360992	0.508631
	C1434	C	0.485718	0.357421	0.513633
	C1435	C	0.494011	0.333663	0.518560
	C1436	C	0.432576	0.288457	0.508949
	C1437	C	0.477589	0.285551	0.522712
	N1438	N	0.451604	0.270300	0.514357
	O1439	O	0.496897	0.277702	0.533071
	O1440	O	0.409087	0.281104	0.501954
	C1441	C	0.444405	0.384017	0.502374
	C1442	C	0.412344	0.350041	0.501623
	N1443	N	0.416717	0.376446	0.498549
	O1444	O	0.390688	0.338580	0.499106
	O1445	O	0.453567	0.404819	0.499996
	C1446	C	0.524138	0.334149	0.520082
	C1447	C	0.509958	0.374253	0.512448
	N1448	N	0.532450	0.358985	0.515960
	O1449	O	0.511364	0.396006	0.508535
	O1450	O	0.539160	0.317113	0.523101
	C1451	C	0.514923	0.645640	0.492101
	C1452	C	0.506624	0.669738	0.487764
	C1453	C	0.525722	0.690173	0.487758
	C1454	C	0.552777	0.686880	0.493182
	C1455	C	0.561095	0.662725	0.498001
	C1456	C	0.542146	0.641796	0.496627
	C1457	C	0.476488	0.668751	0.485395
	C1458	C	0.490682	0.628525	0.492810
	N1459	N	0.468179	0.643718	0.489185
	O1460	O	0.489277	0.606626	0.496475
	O1461	O	0.461455	0.685618	0.482088
	C1462	C	0.568032	0.714779	0.497044
	C1463	C	0.523034	0.717457	0.482931
	N1464	N	0.548997	0.732786	0.491382
	O1465	O	0.503731	0.725196	0.472413
	O1466	O	0.591501	0.722270	0.504258
	C1467	C	0.556230	0.619030	0.503334
	C1468	C	0.588287	0.653142	0.504326
	N1469	N	0.583915	0.626655	0.507259
	O1470	O	0.609949	0.664464	0.506603
	O1471	O	0.547059	0.598348	0.505910
	F1472	F	0.942488	0.822856	0.422680
	C1473	C	0.929927	0.848624	0.459689
	C1474	C	0.906735	0.862092	0.456120
	F1475	F	0.896879	0.849008	0.415660
	C1476	C	0.893854	0.889766	0.494755
	C1477	C	0.902853	0.900300	0.535995
	F1478	F	0.889243	0.924213	0.572410
	C1479	C	0.925885	0.886608	0.539540
	F1480	F	0.934195	0.896952	0.579217
	C1481	C	0.940695	0.862464	0.501909
	F1482	F	0.118550	0.930614	0.578366
	C1483	C	0.118781	0.926261	0.541439
	C1484	C	0.134450	0.949418	0.541828
	F1485	F	0.149217	0.975934	0.579098
	C1486	C	0.134625	0.945434	0.503612
	C1487	C	0.120853	0.915736	0.463860
	F1488	F	0.122734	0.909958	0.426095
	C1489	C	0.104900	0.892911	0.463662
	F1490	F	0.090976	0.865491	0.425884
	C1491	C	0.102741	0.898897	0.503096
	F1492	F	0.907195	0.284966	0.436261
	C1493	C	0.923707	0.286877	0.465216
	C1494	C	0.929440	0.255753	0.456880
	F1495	F	0.918422	0.224349	0.420009
	C1496	C	0.946658	0.256854	0.486448
	C1497	C	0.957864	0.290185	0.524865
	F1498	F	0.974230	0.292247	0.554078
	C1499	C	0.952102	0.321326	0.533244
	F1500	F	0.962984	0.352843	0.570174
	C1501	C	0.934951	0.320153	0.503570
	F1502	F	0.823699	0.504138	0.615254
	C1503	C	0.808430	0.483618	0.576713
	C1504	C	0.781311	0.489782	0.577259
	F1505	F	0.771040	0.517078	0.616136
	C1506	C	0.764796	0.467858	0.537533
	C1507	C	0.776380	0.440639	0.497008
	F1508	F	0.761102	0.420034	0.458440
	C1509	C	0.803540	0.434889	0.496350
	F1510	F	0.814247	0.408882	0.457166
	C1511	C	0.819886	0.455996	0.536260
	F1512	F	0.568166	0.402501	0.591967
	C1513	C	0.575048	0.392355	0.552993
	C1514	C	0.597912	0.407421	0.551948
	F1515	F	0.612774	0.432271	0.589974
	C1516	C	0.605416	0.397350	0.511615
	C1517	C	0.591155	0.368878	0.471489
	F1518	F	0.599563	0.356366	0.432061
	C1519	C	0.568077	0.354101	0.472546
	F1520	F	0.554209	0.327483	0.434097
	C1521	C	0.558849	0.367335	0.513676
	F1522	F	0.407586	0.209011	0.552465
	C1523	C	0.423246	0.207712	0.525212
	C1524	C	0.429389	0.239010	0.533864
	F1525	F	0.419531	0.269920	0.569215
	C1526	C	0.445889	0.238638	0.506280
	C1527	C	0.456077	0.205874	0.469676
	F1528	F	0.471950	0.204466	0.442547
	C1529	C	0.449874	0.174559	0.460944
	F1530	F	0.459921	0.143671	0.425833
	C1531	C	0.433256	0.174930	0.488395
	F1532	F	0.617609	0.578325	0.438845
	C1533	C	0.618340	0.582160	0.475444
	C1534	C	0.633297	0.559309	0.476636
	F1535	F	0.646714	0.533373	0.440979
	C1536	C	0.634199	0.563025	0.514725
	C1537	C	0.621800	0.592109	0.552923
	F1538	F	0.624429	0.597806	0.590873
	C1539	C	0.606421	0.614473	0.551367
	F1540	F	0.593751	0.641261	0.587476
	C1541	C	0.603519	0.608713	0.511830
	F1542	F	0.592884	0.794056	0.453145
	C1543	C	0.577266	0.795367	0.480449
	C1544	C	0.571162	0.764073	0.471827
	F1545	F	0.581274	0.733246	0.436779
	C1546	C	0.554651	0.764429	0.499387
	C1547	C	0.544277	0.797135	0.535768
	F1548	F	0.528467	0.798560	0.562974
	C1549	C	0.550382	0.828428	0.544396
	F1550	F	0.540301	0.859298	0.579480
	C1551	C	0.567076	0.828096	0.517052
	C1552	C	0.805181	0.980457	0.508788
	C1553	C	0.810078	0.953969	0.510435
	C1554	C	0.835522	0.939831	0.502548
	C1555	C	0.855746	0.952483	0.493129
	C1556	C	0.850798	0.979120	0.491372
	C1557	C	0.825703	0.993365	0.499574
	C1558	C	0.784758	0.946465	0.522212
	C1559	C	0.776257	0.989549	0.517327
	N1560	N	0.765071	0.968315	0.525291
	O1561	O	0.763865	1.009851	0.516900
	O1562	O	0.780950	0.926256	0.528194
	C1563	C	0.880727	0.933363	0.486954
	C1564	C	0.847148	0.912743	0.504016
	N1565	N	0.874281	0.909493	0.493330
	O1566	O	0.836836	0.896990	0.513371
	O1567	O	0.902557	0.936728	0.478884
	C1568	C	0.826756	1.022052	0.496873
	C1569	C	0.869022	0.998872	0.484712
	N1570	N	0.853517	1.024420	0.488615
	O1571	O	0.892310	0.995498	0.477837
	O1572	O	0.809426	1.040206	0.500550
	C1573	C	0.189587	0.043379	0.484845
	C1574	C	0.194642	0.017465	0.487485
	C1575	C	0.174028	0.004211	0.496097
	C1576	C	0.148712	0.017629	0.502816
	C1577	C	0.143951	0.044999	0.502366
	C1578	C	0.164175	0.057623	0.492906
	C1579	C	0.223578	0.008424	0.479018
	C1580	C	0.215088	0.051576	0.474248
	N1581	N	0.234822	0.029912	0.471480
	O1582	O	0.218997	0.072172	0.468918
	O1583	O	0.235947	-0.011986	0.479260
	C1584	C	0.130498	-0.002088	0.509531
	C1585	C	0.172847	-0.024958	0.497927
	N1586	N	0.146008	-0.027628	0.505629
	O1587	O	0.190150	-0.043215	0.494070
	O1588	O	0.107212	0.001298	0.516420
	C1589	C	0.152520	0.084546	0.491151
	C1590	C	0.118816	0.063501	0.507476
	N1591	N	0.125295	0.087461	0.501262
	O1592	O	0.096875	0.059693	0.514773
	O1593	O	0.162872	0.100402	0.481971
	C1594	C	0.958403	0.134301	0.483912
	C1595	C	0.939615	0.154038	0.482649
	C1596	C	0.948053	0.179254	0.479951
	C1597	C	0.975001	0.183874	0.477536
	C1598	C	0.993998	0.164951	0.480716
	C1599	C	0.985634	0.140460	0.484155
	C1600	C	0.912409	0.142598	0.484799
	C1601	C	0.944177	0.110417	0.488225
	N1602	N	0.916569	0.116296	0.488161
	O1603	O	0.953157	0.090171	0.491895
	O1604	O	0.890858	0.152500	0.483876
	C1605	C	0.977792	0.211821	0.473932
	C1606	C	0.932958	0.205808	0.481101
	N1607	N	0.952012	0.225320	0.478585
	O1608	O	0.909576	0.211343	0.484320
	O1609	O	0.996991	0.221236	0.466747
	C1610	C	1.009838	0.124492	0.487475
	C1611	C	1.024114	0.165840	0.482371
	N1612	N	1.032383	0.141194	0.487030
	O1613	O	1.039192	0.183722	0.481212
	O1614	O	1.011195	0.102357	0.490770
	C1615	C	0.648091	0.490186	0.514736
	C1616	C	0.673916	0.503583	0.521716
	C1617	C	0.695280	0.488795	0.527800
	C1618	C	0.690540	0.461443	0.527864
	C1619	C	0.664327	0.448760	0.522301
	C1620	C	0.643294	0.462830	0.515157
	C1621	C	0.672645	0.533011	0.520349
	C1622	C	0.629320	0.511047	0.509930
	N1623	N	0.645190	0.536493	0.513823
	O1624	O	0.605453	0.508386	0.504257
	O1625	O	0.690311	0.550857	0.523641
	C1626	C	0.717038	0.451159	0.534955
	C1627	C	0.724991	0.496124	0.533417
	N1628	N	0.736993	0.472586	0.537402
	O1629	O	0.737311	0.516808	0.533702
	O1630	O	0.721561	0.429116	0.537752
	C1631	C	0.617837	0.443562	0.508378
	C1632	C	0.652851	0.420647	0.521893
	N1633	N	0.624830	0.418317	0.512398
	O1634	O	0.663887	0.403671	0.529395
	O1635	O	0.595360	0.447554	0.501203
	C1636	C	0.436960	0.070702	0.482352
	C1637	C	0.417711	0.048194	0.477387
	C1638	C	0.390778	0.050669	0.468942
	C1639	C	0.383466	0.074929	0.464331
	C1640	C	0.402853	0.098096	0.470171
	C1641	C	0.429419	0.096324	0.479806
	C1642	C	0.431543	0.024434	0.482864
	C1643	C	0.463662	0.062802	0.492283
	N1644	N	0.459172	0.034441	0.491584
	O1645	O	0.485189	0.076695	0.499597
	O1646	O	0.422289	0.001428	0.481125
	C1647	C	0.353553	0.072165	0.456628
	C1648	C	0.365792	0.031455	0.464171
	N1649	N	0.344054	0.045798	0.457206
	O1650	O	0.363333	0.009027	0.466732
	O1651	O	0.339241	0.088641	0.451588
	C1652	C	0.445285	0.125240	0.486571
	C1653	C	0.401076	0.126761	0.467643
	N1654	N	0.427019	0.143136	0.479693
	O1655	O	0.382464	0.134864	0.456369
	O1656	O	0.468618	0.133441	0.496439
	C1657	C	0.616813	0.927385	0.539622
	C1658	C	0.609457	0.951486	0.534760
	C1659	C	0.582469	0.954302	0.527015
	C1660	C	0.563204	0.932176	0.522803
	C1661	C	0.570778	0.906659	0.525523
	C1662	C	0.597358	0.904942	0.535165
	C1663	C	0.634469	0.970005	0.538218
	C1664	C	0.646771	0.929727	0.546476
	N1665	N	0.656255	0.955513	0.544844
	O1666	O	0.661121	0.913368	0.551668
	O1667	O	0.636896	0.992020	0.534935
	C1668	C	0.536457	0.940172	0.513127
	C1669	C	0.568606	0.977989	0.521446
	N1670	N	0.540939	0.968291	0.513361
	O1671	O	0.577866	1.000749	0.522716
	O1672	O	0.514907	0.926502	0.506294
	C1673	C	0.599247	0.876045	0.537253
	C1674	C	0.554924	0.877916	0.519152
	N1675	N	0.573266	0.859882	0.525706
	O1676	O	0.531549	0.869908	0.509743
	O1677	O	0.617977	0.867654	0.547939
	F1678	F	0.679360	0.906955	0.463754
	C1679	C	0.694617	0.934630	0.499128
	C1680	C	0.721415	0.937635	0.494319
	F1681	F	0.731777	0.912829	0.454339
	C1682	C	0.737668	0.966484	0.530726
	C1683	C	0.726136	0.992856	0.571736
	F1684	F	0.740843	1.021830	0.606193
	C1685	C	0.699456	0.989322	0.576900
	F1686	F	0.688988	1.014118	0.616734
	C1687	C	0.683361	0.960089	0.540652
	F1688	F	0.849974	0.020811	0.415105
	C1689	C	0.864851	0.047296	0.452227
	C1690	C	0.880606	0.070233	0.452320
	F1691	F	0.880609	0.065900	0.415392
	C1692	C	0.896764	0.097559	0.490499
	C1693	C	0.894747	0.103623	0.530012
	F1694	F	0.908783	0.131017	0.567656
	C1695	C	0.878817	0.080906	0.530037
	F1696	F	0.877100	0.086734	0.567861
	C1697	C	0.864893	0.051265	0.490446
	F1698	F	0.312288	-0.012910	0.383367
	C1699	C	0.301269	0.011108	0.422871
	C1700	C	0.274463	0.006831	0.426672
	F1701	F	0.260225	-0.022185	0.391284
	C1702	C	0.262337	0.032469	0.467296
	C1703	C	0.278097	0.061354	0.504645
	F1704	F	0.267159	0.085425	0.544263
	C1705	C	0.304983	0.065174	0.501123
	F1706	F	0.319774	0.092810	0.537411
	C1707	C	0.316858	0.040427	0.460045
	F1708	F	0.102660	0.147961	0.578719
	C1709	C	0.092856	0.134834	0.538216
	C1710	C	0.069596	0.148112	0.534505
	F1711	F	0.057050	0.173986	0.571470
	C1712	C	0.058868	0.134199	0.492232
	C1713	C	0.073689	0.109997	0.454635
	F1714	F	0.065395	0.099529	0.414884
	C1715	C	0.096728	0.096381	0.458300
	F1716	F	0.110346	0.072400	0.421924
	C1717	C	0.105720	0.107068	0.499628
	F1718	F	0.464559	0.042028	0.567604
	C1719	C	0.481982	0.022188	0.535691
	C1720	C	0.502332	0.006153	0.541089
	F1721	F	0.504478	0.010681	0.578237
	C1722	C	0.520588	-0.015031	0.507887
	C1723	C	0.518116	-0.019448	0.469278
	F1724	F	0.535522	-0.039314	0.437343
	C1725	C	0.497809	-0.003337	0.463934
	F1726	F	0.495612	-0.007930	0.426742
	C1727	C	0.479513	0.017770	0.497081
	F1728	F	0.230123	0.509411	0.621076
	C1729	C	0.220182	0.538770	0.658705
	C1730	C	0.193318	0.545508	0.658636
	F1731	F	0.177531	0.522446	0.621023
	C1732	C	0.182606	0.576338	0.697379
	C1733	C	0.199389	0.599928	0.736513
	F1734	F	0.189642	0.629684	0.773874
	C1735	C	0.226195	0.592850	0.736791
	F1736	F	0.241785	0.615197	0.774772
	C1737	C	0.237081	0.562667	0.697542
	C1738	C	0.081691	0.568418	0.681498
	C1739	C	0.062617	0.584006	0.673445
	C1740	C	0.070444	0.609610	0.671143
	C1741	C	0.097331	0.618871	0.676029
	C1742	C	0.116564	0.603201	0.684295
	C1743	C	0.108751	0.578262	0.687279
	C1744	C	0.035660	0.567794	0.667736
	C1745	C	0.067526	0.543342	0.683983
	N1746	N	0.040062	0.543067	0.673675
	O1747	O	0.076339	0.527162	0.694258
	O1748	O	0.014081	0.573475	0.659869
	C1749	C	0.099646	0.646891	0.672433
	C1750	C	0.054593	0.631067	0.663752
	N1751	N	0.073235	0.653548	0.665922
	O1752	O	0.030969	0.630807	0.657391
	O1753	O	0.119105	0.661755	0.674232
	C1754	C	0.133423	0.565320	0.694852
	C1755	C	0.146585	0.606898	0.689533
	N1756	N	0.155526	0.583497	0.695859
	O1757	O	0.161182	0.624982	0.688011
	O1758	O	0.135071	0.543691	0.698998
	C1759	C	0.334736	0.563413	0.673395
	C1760	C	0.355930	0.543060	0.667398
	C1761	C	0.352351	0.516551	0.669686
	C1762	C	0.327670	0.510677	0.678546
	C1763	C	0.306274	0.531496	0.685092
	C1764	C	0.309697	0.557202	0.681698
	C1765	C	0.380242	0.555674	0.660042
	C1766	C	0.344927	0.590499	0.671093
	N1767	N	0.372689	0.585210	0.664612
	O1768	O	0.333163	0.612557	0.673529
	O1769	O	0.402237	0.544165	0.651737
	C1770	C	0.330586	0.482132	0.681328
	C1771	C	0.371488	0.490953	0.664151
	N1772	N	0.357099	0.470218	0.670192
	O1773	O	0.394684	0.487516	0.656553
	O1774	O	0.314964	0.471444	0.692328
	C1775	C	0.283418	0.574237	0.688711
	C1776	C	0.277518	0.530999	0.693897
	N1777	N	0.264821	0.557267	0.695674
	O1778	O	0.266389	0.512406	0.698338
	O1779	O	0.277837	0.597113	0.687852
	F1780	F	0.066034	0.641423	0.586731
	C1781	C	0.062645	0.674394	0.626110
	C1782	C	0.055710	0.701779	0.626959
	F1783	F	0.052075	0.694924	0.588338
	C1784	C	0.052437	0.736603	0.667798
	C1785	C	0.056099	0.743302	0.707862
	F1786	F	0.052682	0.776266	0.747188
	C1787	C	0.063139	0.715971	0.707056
	F1788	F	0.066816	0.722960	0.745771
	C1789	C	0.066380	0.681131	0.666214
	F1790	F	-0.008832	0.429875	0.583475
	C1791	C	-0.004476	0.463431	0.622787
	C1792	C	0.015620	0.485242	0.627963
	F1793	F	0.030799	0.472481	0.593697
	C1794	C	0.020047	0.520632	0.668713
	C1795	C	0.004213	0.533420	0.704372
	F1796	F	0.008510	0.567013	0.743637
	C1797	C	-0.015814	0.511568	0.699253
	F1798	F	-0.031018	0.524344	0.733499
	C1799	C	-0.020303	0.476216	0.658454
	F1800	F	0.387060	0.486485	0.742062
	C1801	C	0.385977	0.452591	0.702779
	C1802	C	0.402102	0.427482	0.697337
	F1803	F	0.418570	0.437282	0.731607
	C1804	C	0.401514	0.392060	0.656139
	C1805	C	0.382751	0.381747	0.621881
	F1806	F	0.380724	0.347489	0.583408
	C1807	C	0.366488	0.406915	0.627472
	F1808	F	0.348573	0.396727	0.594551
	C1809	C	0.368948	0.443044	0.667188
	F1810	F	0.391696	0.573373	0.591028
	C1811	C	0.402815	0.600168	0.632235
	C1812	C	0.425782	0.618609	0.637758
	F1813	F	0.437251	0.609025	0.601673
	C1814	C	0.437202	0.647030	0.680965
	C1815	C	0.423120	0.659544	0.718201
	F1816	F	0.431283	0.690100	0.759169
	C1817	C	0.400952	0.640057	0.712770
	F1818	F	0.388751	0.650764	0.748906
	C1819	C	0.391476	0.608922	0.669711
	C1820	C	0.039790	0.846126	0.646930
	C1821	C	0.058415	0.831523	0.657083
	C1822	C	0.049900	0.807135	0.661113
	C1823	C	0.022823	0.798890	0.657034
	C1824	C	0.003934	0.815648	0.649972
	C1825	C	0.012473	0.838306	0.643600
	C1826	C	0.085729	0.846632	0.661647
	C1827	C	0.054517	0.869875	0.642793
	N1828	N	0.081880	0.870249	0.653751
	O1829	O	0.046137	0.885170	0.631000
	O1830	O	0.107085	0.841223	0.670499
	C1831	C	0.019863	0.772409	0.663147
	C1832	C	0.065242	0.785158	0.668130
	N1833	N	0.046099	0.764365	0.668196
	O1834	O	0.088863	0.783717	0.672484
	O1835	O	0.000095	0.759499	0.663989
	C1836	C	-0.011759	0.851822	0.636029
	C1837	C	-0.026217	0.814093	0.647003
	N1838	N	-0.034368	0.837385	0.640043
	O1839	O	-0.041336	0.797547	0.650342
	O1840	O	-0.012857	0.871048	0.627950
	C1841	C	0.929139	0.387743	0.656762
	C1842	C	0.902220	0.378923	0.652585
	C1843	C	0.882955	0.395437	0.645709
	C1844	C	0.890816	0.420019	0.642137
	C1845	C	0.917919	0.429386	0.647164
	C1846	C	0.936977	0.413700	0.655087
	C1847	C	0.899883	0.350696	0.655818
	C1848	C	0.944991	0.365797	0.663339
	N1849	N	0.926310	0.343485	0.661415
	O1850	O	0.968645	0.365605	0.668966
	O1851	O	0.880401	0.336068	0.654399
	C1852	C	0.866152	0.433368	0.635197
	C1853	C	0.852930	0.391859	0.640599
	N1854	N	0.844013	0.415484	0.634629
	O1855	O	0.838312	0.373739	0.642030
	O1856	O	0.864527	0.455105	0.631233
	C1857	C	0.964022	0.429109	0.659479
	C1858	C	0.932115	0.454144	0.644166
	N1859	N	0.959646	0.453850	0.653560
	O1860	O	0.923272	0.470473	0.634129
	O1861	O	0.985641	0.422939	0.666541
	C1862	C	0.479408	0.300594	0.660651
	C1863	C	0.452421	0.307055	0.660886
	C1864	C	0.443957	0.330997	0.655859
	C1865	C	0.462502	0.347070	0.648716
	C1866	C	0.489770	0.341416	0.649860
	C1867	C	0.498275	0.318454	0.656052
	C1868	C	0.437047	0.283872	0.665369
	C1869	C	0.482312	0.273937	0.666562
	N1870	N	0.456073	0.264076	0.667686
	O1871	O	0.502029	0.262107	0.669875
	O1872	O	0.413475	0.280897	0.666441
	C1873	C	0.447821	0.370090	0.642878
	C1874	C	0.416759	0.344138	0.656331
	N1875	N	0.420610	0.368317	0.649503
	O1876	O	0.395469	0.336955	0.661558
	O1877	O	0.456103	0.386318	0.632835
	C1878	C	0.528419	0.319253	0.658008
	C1879	C	0.513953	0.356219	0.645266
	N1880	N	0.536584	0.343218	0.652434
	O1881	O	0.515037	0.375320	0.637041
	O1882	O	0.543540	0.303840	0.663710
	C1883	C	0.510403	0.661960	0.689587
	C1884	C	0.501897	0.684941	0.683427
	C1885	C	0.520763	0.702788	0.678804
	C1886	C	0.547750	0.696323	0.678564
	C1887	C	0.556252	0.672746	0.684190
	C1888	C	0.537669	0.656338	0.690788
	C1889	C	0.471751	0.684063	0.681356
	C1890	C	0.486220	0.647001	0.693942
	N1891	N	0.463591	0.660012	0.686794
	O1892	O	0.485139	0.627773	0.701973
	O1893	O	0.456627	0.699478	0.675662
	C1894	C	0.563124	0.719454	0.673997
	C1895	C	0.517856	0.729347	0.672728
	N1896	N	0.544096	0.739194	0.671581
	O1897	O	0.498138	0.741131	0.669335
	O1898	O	0.586696	0.722436	0.672943
	C1899	C	0.552338	0.633224	0.696474
	C1900	C	0.583387	0.659131	0.682938
	N1901	N	0.579525	0.634888	0.689660
	O1902	O	0.604642	0.666064	0.677306
	O1903	O	0.544072	0.617024	0.706567
	F1904	F	0.930805	0.805392	0.563690
	C1905	C	0.923913	0.835391	0.603822
	C1906	C	0.901697	0.853356	0.606684
	F1907	F	0.888048	0.841640	0.569077
	C1908	C	0.893622	0.883958	0.648698
	C1909	C	0.906635	0.893863	0.687581
	F1910	F	0.897009	0.920223	0.727583
	C1911	C	0.929543	0.876887	0.684716
	F1912	F	0.942449	0.887488	0.722253
	C1913	C	0.939432	0.848950	0.642732
	F1914	F	0.084714	0.940046	0.735275
	C1915	C	0.100854	0.931128	0.703664
	C1916	C	0.116738	0.957507	0.710987
	F1917	F	0.115768	0.991585	0.749476
	C1918	C	0.133458	0.948994	0.678227
	C1919	C	0.135707	0.912840	0.639682
	F1920	F	0.153242	0.903805	0.609699
	C1921	C	0.119583	0.886393	0.632091
	F1922	F	0.121439	0.852069	0.594659
	C1923	C	0.101126	0.895454	0.663152
	F1924	F	0.932465	0.273997	0.581433
	C1925	C	0.936344	0.281006	0.620138
	C1926	C	0.943375	0.253640	0.619275
	F1927	F	0.946735	0.220674	0.579923
	C1928	C	0.947113	0.260305	0.659306
	C1929	C	0.943841	0.295112	0.700174
	F1930	F	0.947507	0.301924	0.738762
	C1931	C	0.936842	0.322509	0.701078
	F1932	F	0.933580	0.355503	0.740505
	C1933	C	0.933114	0.315831	0.661011
	F1934	F	0.823141	0.476790	0.710787
	C1935	C	0.806853	0.454295	0.673693
	C1936	C	0.780006	0.461564	0.674937
	F1937	F	0.770640	0.491045	0.713164
	C1938	C	0.762582	0.438239	0.636683
	C1939	C	0.772895	0.408008	0.596740
	F1940	F	0.756782	0.386148	0.559330
	C1941	C	0.799682	0.400366	0.595718
	F1942	F	0.808903	0.370644	0.557642
	C1943	C	0.816984	0.423349	0.634284
	F1944	F	0.563037	0.394286	0.737429
	C1945	C	0.574508	0.384491	0.701235
	C1946	C	0.597439	0.402908	0.706586
	F1947	F	0.608659	0.429673	0.747724
	C1948	C	0.608776	0.393949	0.668992
	C1949	C	0.599231	0.362773	0.626016
	F1950	F	0.611400	0.351898	0.589773
	C1951	C	0.577029	0.343417	0.620765
	F1952	F	0.568786	0.312837	0.579878
	C1953	C	0.562988	0.356090	0.658102
	F1954	F	0.433475	0.221687	0.741558
	C1955	C	0.437831	0.214632	0.703505
	C1956	C	0.445334	0.242455	0.705528
	F1957	F	0.448757	0.275882	0.745438
	C1958	C	0.449458	0.235791	0.666121
	C1959	C	0.446167	0.200526	0.624731
	F1960	F	0.450253	0.193708	0.586760
	C1961	C	0.438702	0.172669	0.622690
	F1962	F	0.435335	0.139232	0.582761
	C1963	C	0.434591	0.179341	0.662131
	F1964	F	0.581395	0.565976	0.607428
	C1965	C	0.597935	0.575662	0.641567
	C1966	C	0.613897	0.550409	0.636064
	F1967	F	0.612759	0.516546	0.596722
	C1968	C	0.631009	0.559860	0.671525
	C1969	C	0.633583	0.595971	0.711268
	F1970	F	0.651558	0.606047	0.744063
	C1971	C	0.617369	0.621234	0.717008
	F1972	F	0.619467	0.655467	0.755531
	C1973	C	0.598579	0.611042	0.682843
	F1974	F	0.566675	0.781424	0.597528
	C1975	C	0.562410	0.788512	0.635627
	C1976	C	0.554743	0.760760	0.633650
	F1977	F	0.551308	0.727318	0.593773
	C1978	C	0.550715	0.767454	0.673101
	C1979	C	0.554041	0.802730	0.714464
	F1980	F	0.550125	0.809568	0.752493
	C1981	C	0.561550	0.830542	0.716440
	F1982	F	0.565115	0.863952	0.756356
	C1983	C	0.565677	0.823817	0.676971
	C1984	C	0.804213	0.959779	0.634774
	C1985	C	0.808899	0.933833	0.637518
	C1986	C	0.835016	0.927267	0.643759
	C1987	C	0.856112	0.947881	0.649050
	C1988	C	0.851473	0.973772	0.645881
	C1989	C	0.825727	0.979390	0.637925
	C1990	C	0.782426	0.918272	0.634761
	C1991	C	0.774478	0.960532	0.628258
	N1992	N	0.762484	0.935393	0.629289
	O1993	O	0.762077	0.978512	0.623622
	O1994	O	0.777761	0.896427	0.637751
	C1995	C	0.881568	0.935587	0.655566
	C1996	C	0.846307	0.900841	0.646708
	N1997	N	0.874527	0.906241	0.651779
	O1998	O	0.835001	0.879146	0.645583
	O1999	O	0.904003	0.947312	0.662953
	C2000	C	0.827477	1.008188	0.635443
	C2001	C	0.870323	0.999763	0.651189
	N2002	N	0.854762	1.020258	0.645469
	O2003	O	0.894091	1.003921	0.658857
	O2004	O	0.810450	1.018886	0.625219
	C2005	C	0.190716	0.064191	0.691745
	C2006	C	0.195302	0.038770	0.695446
	C2007	C	0.173841	0.018282	0.690650
	C2008	C	0.148202	0.023231	0.681414
	C2009	C	0.143514	0.049898	0.679658
	C2010	C	0.164644	0.070370	0.684730
	C2011	C	0.224993	0.038331	0.702676
	C2012	C	0.217179	0.080711	0.696342
	N2013	N	0.237042	0.063937	0.702540
	O2014	O	0.221918	0.102974	0.694106
	O2015	O	0.237322	0.020259	0.707227
	C2016	C	0.129331	-0.002743	0.676113
	C2017	C	0.172056	-0.010584	0.693007
	N2018	N	0.144848	-0.023052	0.682199
	O2019	O	0.188999	-0.021080	0.703636
	O2020	O	0.105587	-0.007041	0.668155
	C2021	C	0.153354	0.097133	0.682391
	C2022	C	0.118133	0.061727	0.672204
	N2023	N	0.125154	0.091339	0.676523
	O2024	O	0.095765	0.049557	0.663916
	O2025	O	0.164657	0.119300	0.684416
	C2026	C	0.959847	0.150706	0.680061
	C2027	C	0.941174	0.165925	0.670909
	C2028	C	0.949689	0.190252	0.666780
	C2029	C	0.976790	0.197883	0.669833
	C2030	C	0.995670	0.181974	0.678272
	C2031	C	0.987140	0.158998	0.684138
	C2032	C	0.913888	0.150478	0.665786
	C2033	C	0.945098	0.127228	0.684623
	N2034	N	0.917734	0.126848	0.673662
	O2035	O	0.953463	0.112111	0.696674
	O2036	O	0.892559	0.155697	0.656614
	C2037	C	0.979732	0.224604	0.664109
	C2038	C	0.934357	0.211771	0.659005
	N2039	N	0.953491	0.232525	0.658862
	O2040	O	0.910743	0.212951	0.654227
	O2041	O	0.999497	0.237724	0.663607
	C2042	C	1.011374	0.145445	0.691647
	C2043	C	1.025823	0.183130	0.680598
	N2044	N	1.033979	0.159852	0.687583
	O2045	O	1.040936	0.199430	0.676860
	O2046	O	1.012471	0.126212	0.699716
	C2047	C	0.647714	0.486181	0.668657
	C2048	C	0.672268	0.491816	0.659217
	C2049	C	0.693690	0.470974	0.652489
	C2050	C	0.690194	0.444623	0.654731
	C2051	C	0.665378	0.439011	0.664285
	C2052	C	0.644234	0.459679	0.670983
	C2053	C	0.669310	0.520544	0.656775
	C2054	C	0.628568	0.511923	0.674556
	N2055	N	0.642868	0.532616	0.668358
	O2056	O	0.605424	0.515463	0.682473
	O2057	O	0.684857	0.531266	0.645725
	C2058	C	0.716479	0.427486	0.647337
	C2059	C	0.722193	0.470752	0.642162
	N2060	N	0.734913	0.444220	0.639802
	O2061	O	0.733114	0.489065	0.637097
	O2062	O	0.722170	0.404660	0.648238
	C2063	C	0.620044	0.447287	0.678877
	C2064	C	0.655244	0.411882	0.666551
	N2065	N	0.627579	0.417551	0.673882
	O2066	O	0.666986	0.389539	0.663522
	O2067	O	0.598140	0.459076	0.687816
	C2068	C	0.437712	0.082611	0.670108
	C2069	C	0.419013	0.067960	0.679098
	C2070	C	0.392185	0.076849	0.682377
	C2071	C	0.384377	0.100552	0.677077
	C2072	C	0.403474	0.116691	0.670248
	C2073	C	0.429980	0.107436	0.666228
	C2074	C	0.433218	0.043822	0.683546
	C2075	C	0.464475	0.067981	0.667849
	N2076	N	0.460266	0.044018	0.674910
	O2077	O	0.485801	0.074305	0.661639
	O2078	O	0.424732	0.027992	0.694024
	C2079	C	0.354727	0.104683	0.681863
	C2080	C	0.367756	0.064811	0.690497
	N2081	N	0.345902	0.082535	0.689877
	O2082	O	0.366136	0.044371	0.696552
	O2083	O	0.340283	0.122244	0.678913
	C2084	C	0.445789	0.129329	0.660063
	C2085	C	0.401187	0.143924	0.665255
	N2086	N	0.427421	0.151256	0.660701
	O2087	O	0.381866	0.157875	0.664924
	O2088	O	0.469188	0.129775	0.655583
	C2089	C	0.615754	0.902095	0.661079
	C2090	C	0.607895	0.925699	0.655634
	C2091	C	0.581098	0.934793	0.659299
	C2092	C	0.562460	0.920321	0.668614
	C2093	C	0.570177	0.895239	0.672050
	C2094	C	0.596775	0.886516	0.668881
	C2095	C	0.632232	0.937317	0.646782
	C2096	C	0.645374	0.897792	0.655951
	N2097	N	0.654094	0.919540	0.647267
	O2098	O	0.659867	0.880378	0.659096
	O2099	O	0.633774	0.957461	0.640244
	C2100	C	0.535677	0.934905	0.670855
	C2101	C	0.566867	0.958979	0.654957
	N2102	N	0.539850	0.958868	0.663787
	O2103	O	0.575316	0.974806	0.644453
	O2104	O	0.514362	0.928534	0.677035
	C2105	C	0.599053	0.859006	0.673403
	C2106	C	0.554489	0.873872	0.679145
	N2107	N	0.572858	0.851866	0.678337
	O2108	O	0.531166	0.873809	0.684337
	O2109	O	0.618348	0.844761	0.673196
	F2110	F	0.679206	0.866721	0.567623
	C2111	C	0.693092	0.896954	0.601407
	C2112	C	0.719568	0.901384	0.596438
	F2113	F	0.730591	0.876159	0.557303
	C2114	C	0.734892	0.931952	0.632163
	C2115	C	0.722745	0.958561	0.672336
	F2116	F	0.737012	0.988112	0.706806
	C2117	C	0.696109	0.954557	0.676898
	F2118	F	0.684883	0.980372	0.715595
	C2119	C	0.680938	0.923649	0.641595
	F2120	F	0.884089	0.005465	0.578341
	C2121	C	0.882942	0.039598	0.616637
	C2122	C	0.898911	0.065922	0.623976
	F2123	F	0.915105	0.056942	0.592393
	C2124	C	0.898489	0.101659	0.664302
	C2125	C	0.879929	0.110780	0.695263
	F2126	F	0.877940	0.145146	0.732502
	C2127	C	0.863835	0.084355	0.687775
	F2128	F	0.846255	0.093445	0.717724
	C2129	C	0.866160	0.048173	0.649366
	F2130	F	0.316030	0.021458	0.619789
	C2131	C	0.304253	0.046672	0.658124
	C2132	C	0.277476	0.042040	0.661314
	F2133	F	0.263661	0.012423	0.625977
	C2134	C	0.264726	0.068067	0.701021
	C2135	C	0.279582	0.098719	0.737665
	F2136	F	0.267986	0.123355	0.776391
	C2137	C	0.306180	0.103858	0.734012
	F2138	F	0.319652	0.134132	0.768713
	C2139	C	0.318942	0.077722	0.694303
	F2140	F	0.111269	0.155704	0.759112
	C2141	C	0.097823	0.144075	0.721401
	C2142	C	0.075546	0.161887	0.724099
	F2143	F	0.068563	0.191880	0.764161
	C2144	C	0.060193	0.148375	0.685068
	C2145	C	0.070244	0.120549	0.643184
	F2146	F	0.057490	0.109975	0.605563
	C2147	C	0.093168	0.103664	0.640499
	F2148	F	0.102952	0.077432	0.600585
	C2149	C	0.106029	0.113534	0.679458
	F2150	F	0.494473	0.069740	0.748541
	C2151	C	0.497230	0.036271	0.709712
	C2152	C	0.517037	0.015420	0.706800
	F2153	F	0.533361	0.028923	0.742881
	C2154	C	0.520016	-0.019764	0.666456
	C2155	C	0.502850	-0.033406	0.629013
	F2156	F	0.505546	-0.066915	0.590227
	C2157	C	0.483099	-0.012517	0.631884
	F2158	F	0.466719	-0.026057	0.595844
	C2159	C	0.480085	0.022643	0.672255
	F2160	F	0.230665	0.481968	0.718783
	C2161	C	0.219852	0.509595	0.756787
	C2162	C	0.192714	0.515162	0.755928
	F2163	F	0.177920	0.493588	0.716922
	C2164	C	0.180687	0.543065	0.795527
	C2165	C	0.196524	0.565232	0.835969
	F2166	F	0.185270	0.591552	0.874380
	C2167	C	0.223737	0.560211	0.836640
	F2168	F	0.238521	0.581849	0.875691
	C2169	C	0.235878	0.532647	0.796970
	C2170	C	0.080750	0.549442	0.812086
	C2171	C	0.061764	0.572269	0.817915
	C2172	C	0.068809	0.598053	0.815520
	C2173	C	0.094702	0.600433	0.806656
	C2174	C	0.114102	0.578409	0.802615
	C2175	C	0.107173	0.552848	0.804976
	C2176	C	0.035639	0.563027	0.825789
	C2177	C	0.067490	0.525117	0.816732
	N2178	N	0.040292	0.534327	0.824387
	O2179	O	0.076829	0.502230	0.815105
	O2180	O	0.014389	0.576212	0.832160
	C2181	C	0.096260	0.629580	0.805025
	C2182	C	0.053188	0.626772	0.822016
	N2183	N	0.070931	0.645192	0.815948
	O2184	O	0.030428	0.634457	0.831122
	O2185	O	0.114227	0.638349	0.794888
	C2186	C	0.132122	0.534156	0.800649
	C2187	C	0.143520	0.576607	0.796007
	N2188	N	0.153283	0.549663	0.795292
	O2189	O	0.157282	0.594349	0.792834
	O2190	O	0.134990	0.511153	0.802135
	C2191	C	0.336289	0.553726	0.815846
	C2192	C	0.357237	0.540371	0.824268
	C2193	C	0.352468	0.512774	0.824254
	C2194	C	0.326671	0.499141	0.816838
	C2195	C	0.305313	0.513880	0.810669
	C2196	C	0.310097	0.540762	0.809756
	C2197	C	0.382734	0.559317	0.830464
	C2198	C	0.347800	0.581578	0.815801
	N2199	N	0.375787	0.584158	0.825721
	O2200	O	0.336815	0.598215	0.807729
	O2201	O	0.405201	0.555403	0.837783
	C2202	C	0.327932	0.469738	0.818249
	C2203	C	0.371223	0.492068	0.829353
	N2204	N	0.355365	0.466470	0.825174
	O2205	O	0.395070	0.494926	0.835412
	O2206	O	0.310273	0.451762	0.814709
	C2207	C	0.283671	0.550264	0.801257
	C2208	C	0.275669	0.505700	0.803510
	N2209	N	0.263719	0.528636	0.798442
	O2210	O	0.263346	0.484875	0.802964
	O2211	O	0.279198	0.571885	0.797702
	F2212	F	0.036933	0.643735	0.757476
	C2213	C	0.047735	0.675336	0.794370
	C2214	C	0.041918	0.706357	0.802488
	F2215	F	0.025539	0.704096	0.773127
	C2216	C	0.053042	0.739776	0.840834
	C2217	C	0.070255	0.741085	0.870580
	F2218	F	0.081090	0.772613	0.907504
	C2219	C	0.076182	0.710048	0.862349
	F2220	F	0.092647	0.712175	0.891521
	C2221	C	0.065006	0.676681	0.824078
	F2222	F	-0.036763	0.453773	0.759542
	C2223	C	-0.018712	0.475456	0.794140
	C2224	C	0.001346	0.493063	0.791439
	F2225	F	0.002571	0.488213	0.754220
	C2226	C	0.020281	0.516174	0.827382
	C2227	C	0.018788	0.520941	0.866059
	F2228	F	0.036810	0.542671	0.900693
	C2229	C	-0.001230	0.503266	0.868713
	F2230	F	-0.002519	0.508205	0.905986
	C2231	C	-0.020202	0.480223	0.832816
	F2232	F	0.353687	0.469461	0.897897
	C2233	C	0.367153	0.443565	0.862291
	C2234	C	0.382240	0.420865	0.863610
	F2235	F	0.382861	0.424595	0.900127
	C2236	C	0.397105	0.394351	0.827265
	C2237	C	0.394252	0.388616	0.787741
	F2238	F	0.406990	0.361894	0.751682
	C2239	C	0.378847	0.410938	0.786144
	F2240	F	0.376272	0.405278	0.748217
	C2241	C	0.366365	0.439948	0.824281
	F2242	F	0.388070	0.569941	0.748034
	C2243	C	0.402791	0.594990	0.786151
	C2244	C	0.425713	0.610012	0.785167
	F2245	F	0.432658	0.599897	0.746239
	C2246	C	0.441776	0.635228	0.824592
	C2247	C	0.432438	0.648520	0.865683
	F2248	F	0.446196	0.675260	0.904195
	C2249	C	0.409363	0.633686	0.866649
	F2250	F	0.400852	0.646265	0.906052
	C2251	C	0.395212	0.605093	0.826469
	C2252	C	0.041124	0.862007	0.842823
	C2253	C	0.059979	0.842859	0.845092
	C2254	C	0.051570	0.817692	0.847890
	C2255	C	0.024575	0.812534	0.849380
	C2256	C	0.005612	0.832275	0.847661
	C2257	C	0.013952	0.856739	0.844161
	C2258	C	0.087129	0.853808	0.842044
	C2259	C	0.055336	0.885997	0.838673
	N2260	N	0.082938	0.880026	0.838545
	O2261	O	0.046348	0.906325	0.835153
	O2262	O	0.108669	0.843652	0.842485
	C2263	C	0.021847	0.784763	0.853307
	C2264	C	0.066650	0.790754	0.845988
	N2265	N	0.047623	0.771202	0.848479
	O2266	O	0.090000	0.785026	0.842346
	O2267	O	0.002705	0.775495	0.860787
	C2268	C	-0.010281	0.872270	0.840115
	C2269	C	-0.024518	0.830959	0.845305
	N2270	N	-0.032812	0.855484	0.840446
	O2271	O	-0.039575	0.812888	0.846164
	O2272	O	-0.011661	0.894217	0.836497
	C2273	C	0.931342	0.398810	0.845502
	C2274	C	0.905567	0.396854	0.855133
	C2275	C	0.886324	0.419503	0.860328
	C2276	C	0.893087	0.444382	0.856716
	C2277	C	0.919475	0.447634	0.849325
	C2278	C	0.938373	0.424508	0.842951
	C2279	C	0.904017	0.367813	0.856953
	C2280	C	0.946854	0.369833	0.838556
	N2281	N	0.929171	0.351732	0.845186
	O2282	O	0.969491	0.361768	0.828786
	O2283	O	0.886192	0.359432	0.867774
	C2284	C	0.868309	0.463905	0.862603
	C2285	C	0.856944	0.421433	0.867226
	N2286	N	0.847223	0.448661	0.868482
	O2287	O	0.843201	0.403601	0.870275
	O2288	O	0.865493	0.487301	0.861833
	C2289	C	0.964412	0.433405	0.834448
	C2290	C	0.932665	0.471673	0.844155
	N2291	N	0.959778	0.462136	0.835903
	O2292	O	0.923333	0.494580	0.845815
	O2293	O	0.985590	0.419961	0.827604
	C2294	C	0.474914	0.312919	0.851354
	C2295	C	0.447857	0.316304	0.846081
	C2296	C	0.439521	0.340792	0.841854
	C2297	C	0.458502	0.360992	0.841965
	C2298	C	0.485718	0.357421	0.846966
	C2299	C	0.494011	0.333663	0.851893
	C2300	C	0.432576	0.288457	0.842283
	C2301	C	0.477589	0.285551	0.856045
	N2302	N	0.451604	0.270300	0.847690
	O2303	O	0.496897	0.277702	0.866404
	O2304	O	0.409087	0.281104	0.835288
	C2305	C	0.444405	0.384017	0.835707
	C2306	C	0.412344	0.350041	0.834956
	N2307	N	0.416717	0.376446	0.831882
	O2308	O	0.390688	0.338580	0.832440
	O2309	O	0.453567	0.404819	0.833329
	C2310	C	0.524138	0.334149	0.853415
	C2311	C	0.509958	0.374253	0.845781
	N2312	N	0.532450	0.358985	0.849294
	O2313	O	0.511364	0.396006	0.841869
	O2314	O	0.539160	0.317113	0.856434
	C2315	C	0.514923	0.645640	0.825434
	C2316	C	0.506624	0.669738	0.821098
	C2317	C	0.525722	0.690173	0.821092
	C2318	C	0.552777	0.686880	0.826516
	C2319	C	0.561095	0.662725	0.831334
	C2320	C	0.542146	0.641796	0.829960
	C2321	C	0.476488	0.668751	0.818728
	C2322	C	0.490682	0.628525	0.826143
	N2323	N	0.468179	0.643718	0.822518
	O2324	O	0.489277	0.606626	0.829808
	O2325	O	0.461455	0.685618	0.815421
	C2326	C	0.568032	0.714779	0.830377
	C2327	C	0.523034	0.717457	0.816264
	N2328	N	0.548997	0.732786	0.824715
	O2329	O	0.503731	0.725196	0.805746
	O2330	O	0.591501	0.722270	0.837591
	C2331	C	0.556230	0.619030	0.836667
	C2332	C	0.588287	0.653142	0.837659
	N2333	N	0.583915	0.626655	0.840592
	O2334	O	0.609949	0.664464	0.839936
	O2335	O	0.547059	0.598348	0.839243
	F2336	F	0.942488	0.822856	0.756013
	C2337	C	0.929927	0.848624	0.793023
	C2338	C	0.906735	0.862092	0.789453
	F2339	F	0.896879	0.849008	0.748994
	C2340	C	0.893854	0.889766	0.828088
	C2341	C	0.902853	0.900300	0.869328
	F2342	F	0.889243	0.924213	0.905743
	C2343	C	0.925885	0.886608	0.872873
	F2344	F	0.934195	0.896952	0.912550
	C2345	C	0.940695	0.862464	0.835242
	F2346	F	0.118550	0.930614	0.911700
	C2347	C	0.118781	0.926261	0.874773
	C2348	C	0.134450	0.949418	0.875161
	F2349	F	0.149217	0.975934	0.912431
	C2350	C	0.134625	0.945434	0.836945
	C2351	C	0.120853	0.915736	0.797193
	F2352	F	0.122734	0.909958	0.759428
	C2353	C	0.104900	0.892911	0.796995
	F2354	F	0.090976	0.865491	0.759217
	C2355	C	0.102741	0.898897	0.836429
	F2356	F	0.907195	0.284966	0.769595
	C2357	C	0.923707	0.286877	0.798549
	C2358	C	0.929440	0.255753	0.790214
	F2359	F	0.918422	0.224349	0.753343
	C2360	C	0.946658	0.256854	0.819781
	C2361	C	0.957864	0.290185	0.858199
	F2362	F	0.974230	0.292247	0.887412
	C2363	C	0.952102	0.321326	0.866577
	F2364	F	0.962984	0.352843	0.903507
	C2365	C	0.934951	0.320153	0.836903
	F2366	F	0.823699	0.504138	0.948587
	C2367	C	0.808430	0.483618	0.910046
	C2368	C	0.781311	0.489782	0.910593
	F2369	F	0.771040	0.517078	0.949469
	C2370	C	0.764796	0.467858	0.870867
	C2371	C	0.776380	0.440639	0.830342
	F2372	F	0.761102	0.420034	0.791773
	C2373	C	0.803540	0.434889	0.829684
	F2374	F	0.814247	0.408882	0.790500
	C2375	C	0.819886	0.455996	0.869593
	F2376	F	0.568166	0.402501	0.925300
	C2377	C	0.575048	0.392355	0.886326
	C2378	C	0.597912	0.407421	0.885282
	F2379	F	0.612774	0.432271	0.923308
	C2380	C	0.605416	0.397350	0.844948
	C2381	C	0.591155	0.368878	0.804822
	F2382	F	0.599563	0.356366	0.765394
	C2383	C	0.568077	0.354101	0.805880
	F2384	F	0.554209	0.327483	0.767431
	C2385	C	0.558849	0.367335	0.847009
	F2386	F	0.407586	0.209011	0.885799
	C2387	C	0.423246	0.207712	0.858545
	C2388	C	0.429389	0.239010	0.867198
	F2389	F	0.419531	0.269920	0.902548
	C2390	C	0.445889	0.238638	0.839613
	C2391	C	0.456077	0.205874	0.803009
	F2392	F	0.471950	0.204466	0.775880
	C2393	C	0.449874	0.174559	0.794277
	F2394	F	0.459921	0.143671	0.759166
	C2395	C	0.433256	0.174930	0.821728
	F2396	F	0.617609	0.578325	0.772179
	C2397	C	0.618340	0.582160	0.808777
	C2398	C	0.633297	0.559309	0.809970
	F2399	F	0.646714	0.533373	0.774313
	C2400	C	0.634199	0.563025	0.848058
	C2401	C	0.621800	0.592109	0.886256
	F2402	F	0.624429	0.597806	0.924206
	C2403	C	0.606421	0.614473	0.884700
	F2404	F	0.593751	0.641261	0.920809
	C2405	C	0.603519	0.608713	0.845163
	F2406	F	0.592884	0.794056	0.786479
	C2407	C	0.577266	0.795367	0.813783
	C2408	C	0.571162	0.764073	0.805160
	F2409	F	0.581274	0.733246	0.770112
	C2410	C	0.554651	0.764429	0.832720
	C2411	C	0.544277	0.797135	0.869101
	F2412	F	0.528467	0.798560	0.896307
	C2413	C	0.550382	0.828428	0.877729
	F2414	F	0.540301	0.859298	0.912813
	C2415	C	0.567076	0.828096	0.850385
	C2416	C	0.805181	0.980457	0.842121
	C2417	C	0.810078	0.953969	0.843769
	C2418	C	0.835522	0.939831	0.835881
	C2419	C	0.855746	0.952483	0.826462
	C2420	C	0.850798	0.979120	0.824705
	C2421	C	0.825703	0.993365	0.832908
	C2422	C	0.784758	0.946465	0.855545
	C2423	C	0.776257	0.989549	0.850660
	N2424	N	0.765071	0.968315	0.858625
	O2425	O	0.763865	1.009851	0.850233
	O2426	O	0.780950	0.926256	0.861527
	C2427	C	0.880727	0.933363	0.820287
	C2428	C	0.847148	0.912743	0.837349
	N2429	N	0.874281	0.909493	0.826664
	O2430	O	0.836836	0.896990	0.846704
	O2431	O	0.902557	0.936728	0.812218
	C2432	C	0.826756	1.022052	0.830206
	C2433	C	0.869022	0.998872	0.818045
	N2434	N	0.853517	1.024420	0.821948
	O2435	O	0.892310	0.995498	0.811170
	O2436	O	0.809426	1.040206	0.833884
	C2437	C	0.189587	0.043379	0.818179
	C2438	C	0.194642	0.017465	0.820818
	C2439	C	0.174028	0.004211	0.829430
	C2440	C	0.148712	0.017629	0.836149
	C2441	C	0.143951	0.044999	0.835699
	C2442	C	0.164175	0.057623	0.826239
	C2443	C	0.223578	0.008424	0.812351
	C2444	C	0.215088	0.051576	0.807581
	N2445	N	0.234822	0.029912	0.804813
	O2446	O	0.218997	0.072172	0.802251
	O2447	O	0.235947	-0.011986	0.812594
	C2448	C	0.130498	-0.002088	0.842865
	C2449	C	0.172847	-0.024958	0.831260
	N2450	N	0.146008	-0.027628	0.838963
	O2451	O	0.190150	-0.043215	0.827404
	O2452	O	0.107212	0.001298	0.849753
	C2453	C	0.152520	0.084546	0.824484
	C2454	C	0.118816	0.063501	0.840809
	N2455	N	0.125295	0.087461	0.834595
	O2456	O	0.096875	0.059693	0.848106
	O2457	O	0.162872	0.100402	0.815304
	C2458	C	0.958403	0.134301	0.817246
	C2459	C	0.939615	0.154038	0.815982
	C2460	C	0.948053	0.179254	0.813284
	C2461	C	0.975001	0.183874	0.810869
	C2462	C	0.993998	0.164951	0.814050
	C2463	C	0.985634	0.140460	0.817488
	C2464	C	0.912409	0.142598	0.818132
	C2465	C	0.944177	0.110417	0.821558
	N2466	N	0.916569	0.116296	0.821494
	O2467	O	0.953157	0.090171	0.825229
	O2468	O	0.890858	0.152500	0.817210
	C2469	C	0.977792	0.211821	0.807265
	C2470	C	0.932958	0.205808	0.814434
	N2471	N	0.952012	0.225320	0.811918
	O2472	O	0.909576	0.211343	0.817653
	O2473	O	0.996991	0.221236	0.800080
	C2474	C	1.009838	0.124492	0.820808
	C2475	C	1.024114	0.165840	0.815704
	N2476	N	1.032383	0.141194	0.820364
	O2477	O	1.039192	0.183722	0.814546
	O2478	O	1.011195	0.102357	0.824104
	C2479	C	0.648091	0.490186	0.848069
	C2480	C	0.673916	0.503583	0.855050
	C2481	C	0.695280	0.488795	0.861134
	C2482	C	0.690540	0.461443	0.861197
	C2483	C	0.664327	0.448760	0.855634
	C2484	C	0.643294	0.462830	0.848490
	C2485	C	0.672645	0.533011	0.853683
	C2486	C	0.629320	0.511047	0.843264
	N2487	N	0.645190	0.536493	0.847156
	O2488	O	0.605453	0.508386	0.837590
	O2489	O	0.690311	0.550857	0.856975
	C2490	C	0.717038	0.451159	0.868289
	C2491	C	0.724991	0.496124	0.866751
	N2492	N	0.736993	0.472586	0.870735
	O2493	O	0.737311	0.516808	0.867036
	O2494	O	0.721561	0.429116	0.871085
	C2495	C	0.617837	0.443562	0.841711
	C2496	C	0.652851	0.420647	0.855226
	N2497	N	0.624830	0.418317	0.845731
	O2498	O	0.663887	0.403671	0.862729
	O2499	O	0.595360	0.447554	0.834536
	C2500	C	0.436960	0.070702	0.815686
	C2501	C	0.417711	0.048194	0.810721
	C2502	C	0.390778	0.050669	0.802275
	C2503	C	0.383466	0.074929	0.797664
	C2504	C	0.402853	0.098096	0.803504
	C2505	C	0.429419	0.096324	0.813139
	C2506	C	0.431543	0.024434	0.816197
	C2507	C	0.463662	0.062802	0.825616
	N2508	N	0.459172	0.034441	0.824917
	O2509	O	0.485189	0.076695	0.832930
	O2510	O	0.422289	0.001428	0.814459
	C2511	C	0.353553	0.072165	0.789962
	C2512	C	0.365792	0.031455	0.797504
	N2513	N	0.344054	0.045798	0.790539
	O2514	O	0.363333	0.009027	0.800065
	O2515	O	0.339241	0.088641	0.784921
	C2516	C	0.445285	0.125240	0.819905
	C2517	C	0.401076	0.126761	0.800976
	N2518	N	0.427019	0.143136	0.813026
	O2519	O	0.382464	0.134864	0.789702
	O2520	O	0.468618	0.133441	0.829773
	C2521	C	0.616813	0.927385	0.872956
	C2522	C	0.609457	0.951486	0.868093
	C2523	C	0.582469	0.954302	0.860348
	C2524	C	0.563204	0.932176	0.856136
	C2525	C	0.570778	0.906659	0.858857
	C2526	C	0.597358	0.904942	0.868498
	C2527	C	0.634469	0.970005	0.871551
	C2528	C	0.646771	0.929727	0.879809
	N2529	N	0.656255	0.955513	0.878177
	O2530	O	0.661121	0.913368	0.885002
	O2531	O	0.636896	0.992020	0.868269
	C2532	C	0.536457	0.940172	0.846460
	C2533	C	0.568606	0.977989	0.854779
	N2534	N	0.540939	0.968291	0.846695
	O2535	O	0.577866	1.000749	0.856049
	O2536	O	0.514907	0.926502	0.839627
	C2537	C	0.599247	0.876045	0.870586
	C2538	C	0.554924	0.877916	0.852486
	N2539	N	0.573266	0.859882	0.859040
	O2540	O	0.531549	0.869908	0.843077
	O2541	O	0.617977	0.867654	0.881273
	F2542	F	0.679360	0.906955	0.797088
	C2543	C	0.694617	0.934630	0.832462
	C2544	C	0.721415	0.937635	0.827652
	F2545	F	0.731777	0.912829	0.787673
	C2546	C	0.737668	0.966484	0.864059
	C2547	C	0.726136	0.992856	0.905070
	F2548	F	0.740843	1.021830	0.939526
	C2549	C	0.699456	0.989322	0.910233
	F2550	F	0.688988	1.014118	0.950068
	C2551	C	0.683361	0.960089	0.873985
	F2552	F	0.849974	0.020811	0.748438
	C2553	C	0.864851	0.047296	0.785561
	C2554	C	0.880606	0.070233	0.785653
	F2555	F	0.880609	0.065900	0.748725
	C2556	C	0.896764	0.097559	0.823833
	C2557	C	0.894747	0.103623	0.863345
	F2558	F	0.908783	0.131017	0.900990
	C2559	C	0.878817	0.080906	0.863370
	F2560	F	0.877100	0.086734	0.901194
	C2561	C	0.864893	0.051265	0.823780
	F2562	F	0.312288	-0.012910	0.716700
	C2563	C	0.301269	0.011108	0.756205
	C2564	C	0.274463	0.006831	0.760005
	F2565	F	0.260225	-0.022185	0.724617
	C2566	C	0.262337	0.032469	0.800629
	C2567	C	0.278097	0.061354	0.837978
	F2568	F	0.267159	0.085425	0.877597
	C2569	C	0.304983	0.065174	0.834457
	F2570	F	0.319774	0.092810	0.870744
	C2571	C	0.316858	0.040427	0.793378
	F2572	F	0.102660	0.147961	0.912052
	C2573	C	0.092856	0.134834	0.871549
	C2574	C	0.069596	0.148112	0.867838
	F2575	F	0.057050	0.173986	0.904803
	C2576	C	0.058868	0.134199	0.825565
	C2577	C	0.073689	0.109997	0.787968
	F2578	F	0.065395	0.099529	0.748217
	C2579	C	0.096728	0.096381	0.791633
	F2580	F	0.110346	0.072400	0.755258
	C2581	C	0.105720	0.107068	0.832961
	F2582	F	0.464559	0.042028	0.900938
	C2583	C	0.481982	0.022188	0.869024
	C2584	C	0.502332	0.006153	0.874423
	F2585	F	0.504478	0.010681	0.911570
	C2586	C	0.520588	-0.015031	0.841220
	C2587	C	0.518116	-0.019448	0.802611
	F2588	F	0.535522	-0.039314	0.770676
	C2589	C	0.497809	-0.003337	0.797268
	F2590	F	0.495612	-0.007930	0.760075
	C2591	C	0.479513	0.017770	0.830415
	N2592	N	0.933321	0.701249	0.137159
	N2593	N	0.929281	0.676607	0.101719
	N2594	N	0.231704	0.319923	0.073183
	N2595	N	0.226125	0.303571	0.081172
	N2596	N	0.830666	0.571749	0.733932
	N2597	N	0.849978	0.584584	0.752719
	N2598	N	0.293429	0.521196	0.240774
	N2599	N	0.295409	0.546794	0.248762
	N2600	N	0.779264	0.213267	0.091801
	N2601	N	0.778442	0.236920	0.095287
	N2602	N	0.380202	0.681608	0.174699
	N2603	N	0.366073	0.700603	0.179675
	N2604	N	0.769518	0.810433	0.915672
	N2605	N	0.748952	0.818838	0.918346
	N2606	N	0.711806	0.222747	0.074165
	N2607	N	0.702671	0.227830	0.102396
	N2608	N	0.880272	0.500002	0.745610
	N2609	N	0.872991	0.497151	0.768730
	N2610	N	0.904742	0.795183	0.807657
	N2611	N	0.884105	0.802102	0.806844
	N2612	N	0.985139	0.668118	0.961741
	N2613	N	0.970164	0.661248	0.974401
	N2614	N	0.472489	0.906776	0.406638
	N2615	N	0.466991	0.930575	0.440488
	N2616	N	0.058603	0.351624	0.610211
	N2617	N	0.058926	0.323247	0.579171
	N2618	N	0.817803	0.653906	0.467026
	N2619	N	0.824661	0.628703	0.456871
	N2620	N	0.853554	0.791380	0.365477
	N2621	N	0.835281	0.780185	0.366797
	N2622	N	0.323557	0.367461	0.495900
	N2623	N	0.310457	0.349810	0.464961
	N2624	N	0.607037	0.296749	0.332439
	N2625	N	0.606246	0.286437	0.349601
	N2626	N	0.773337	0.696440	0.281360
	N2627	N	0.757948	0.705822	0.271137
	N2628	N	0.351941	0.818576	0.923220
	N2629	N	0.363475	0.843436	0.938926
	N2630	N	0.554052	0.221559	0.037336
	N2631	N	0.564296	0.196933	0.023356
	C2632	C	0.331416	0.355538	0.346385
	O2633	O	0.333228	0.355019	0.375191
	O2634	O	0.329603	0.356039	0.317545
	C2635	C	0.467898	0.773138	0.267007
	O2636	O	0.488774	0.782794	0.286370
	O2637	O	0.447023	0.763481	0.247645
	C2638	C	0.528073	0.565705	0.215590
	O2639	O	0.520046	0.592791	0.247104
	O2640	O	0.536101	0.538616	0.184109
	C2641	C	0.361590	0.212001	0.087976
	O2642	O	0.349614	0.226324	0.078498
	O2643	O	0.373548	0.197717	0.097487
	C2644	C	0.490857	0.565431	0.688742
	O2645	O	0.490736	0.585655	0.727941
	O2646	O	0.490958	0.545227	0.649544
	C2647	C	0.453353	0.472771	0.636411
	O2648	O	0.448179	0.502777	0.663795
	O2649	O	0.458527	0.442786	0.609026
	C2650	C	0.336585	0.025580	0.214608
	O2651	O	0.315086	0.026729	0.203471
	O2652	O	0.358082	0.024413	0.225711
	C2653	C	0.634717	0.758993	0.340665
	O2654	O	0.618655	0.775898	0.340902
	O2655	O	0.650758	0.742069	0.340394
	C2656	C	0.987528	0.692302	0.883108
	O2657	O	0.997290	0.705540	0.871091
	O2658	O	0.977766	0.679064	0.895125
	C2659	C	0.002379	0.067209	0.213322
	O2660	O	0.013052	0.040570	0.186885
	O2661	O	-0.008294	0.093829	0.239758
	C2662	C	0.960567	0.975210	0.199443
	O2663	O	0.962591	1.004446	0.213999
	O2664	O	0.958523	0.945954	0.184888
	C2665	C	0.119978	0.799686	0.080800
	O2666	O	0.111989	0.770814	0.062622
	O2667	O	0.127967	0.828558	0.098977
	C2668	C	0.016997	0.260171	0.278246
	O2669	O	0.011439	0.232929	0.242128
	O2670	O	0.022556	0.287414	0.314363
	C2671	C	0.354932	0.205969	0.457345
	O2672	O	0.375591	0.202993	0.468888
	O2673	O	0.334295	0.208963	0.445836
	C2674	C	0.550122	0.138884	0.074537
	O2675	O	0.530735	0.144674	0.092952
	O2676	O	0.569507	0.133076	0.056089
	C2677	C	0.869726	0.214744	0.268091
	O2678	O	0.858955	0.189038	0.256683
	O2679	O	0.880476	0.240430	0.279498
	C2680	C	0.513803	0.569015	0.880840
	O2681	O	0.520184	0.594268	0.918041
	O2682	O	0.507422	0.543762	0.843639
	C2683	C	0.354723	0.229423	0.297540
	O2684	O	0.376069	0.218361	0.290567
	O2685	O	0.333397	0.240486	0.304513
	C2686	C	0.955291	0.604904	0.797807
	O2687	O	0.945864	0.589807	0.807521
	O2688	O	0.964738	0.620002	0.788092
	C2689	C	0.162598	0.853871	0.722186
	O2690	O	0.157250	0.839705	0.735286
	O2691	O	0.167946	0.868018	0.709052
	C2692	C	0.487629	0.807945	0.785519
	O2693	O	0.502684	0.796418	0.795776
	O2694	O	0.472594	0.819492	0.775263
	C2695	C	0.671621	0.006161	0.828068
	O2696	O	0.663261	0.031402	0.835989
	O2697	O	0.680001	-0.019100	0.820147
	C2698	C	0.504521	0.396872	0.779088
	O2699	O	0.499858	0.366096	0.753802
	O2700	O	0.509203	0.427649	0.804340
	C2701	C	0.942092	0.987565	0.764701
	O2702	O	0.955299	0.964896	0.756307
	O2703	O	0.928883	1.010236	0.773062
	C2704	C	0.452398	0.499137	0.253941
	O2705	O	0.468180	0.522632	0.271645
	O2706	O	0.436596	0.475642	0.236238
	C2707	C	0.144967	0.792737	0.772081
	O2708	O	0.127594	0.771190	0.754614
	O2709	O	0.162359	0.814266	0.789513
	C2710	C	0.502030	0.438256	0.114142
	O2711	O	0.497834	0.408300	0.081747
	O2712	O	0.506246	0.468232	0.146536
	C2713	C	0.955060	0.996382	0.396618
	O2714	O	0.966953	0.970592	0.379761
	O2715	O	0.943186	1.022154	0.413442
	C2716	C	0.488809	0.551784	0.040078
	O2717	O	0.488742	0.520904	0.018110
	O2718	O	0.488878	0.582683	0.062081
	C2719	C	0.141707	0.734979	0.117560
	O2720	O	0.160394	0.751761	0.123687
	O2721	O	0.123001	0.718197	0.111434
	C2722	C	0.372488	0.293874	0.741751
	O2723	O	0.359243	0.318747	0.760809
	O2724	O	0.385715	0.268999	0.722728
	C2725	C	0.041606	0.020450	0.444347
	O2726	O	0.033227	-0.005187	0.436020
	O2727	O	0.049985	0.046066	0.452674
	C2728	C	0.517960	0.137638	0.922983
	O2729	O	0.539416	0.133167	0.910763
	O2730	O	0.496485	0.142109	0.935203
	C2731	C	0.140297	0.815616	0.428843
	O2732	O	0.131961	0.786244	0.406773
	O2733	O	0.148631	0.844991	0.450880
	C2734	C	0.005977	0.940745	0.445701
	O2735	O	0.000762	0.968725	0.479280
	O2736	O	0.011213	0.912765	0.412122
	C2737	C	0.520559	0.156324	0.252384
	O2738	O	0.540047	0.143440	0.233733
	O2739	O	0.501069	0.169190	0.271002
	C2740	C	0.954746	0.544289	0.975687
	O2741	O	0.966346	0.526720	0.980359
	O2742	O	0.943147	0.561859	0.971016
	C2743	C	0.863586	0.287903	0.874307
	O2744	O	0.842355	0.282768	0.879960
	O2745	O	0.884799	0.293076	0.868688
	C2746	C	0.540388	0.480053	0.510523
	O2747	O	0.545834	0.504988	0.548333
	O2748	O	0.534961	0.455137	0.472713
	C2749	C	0.804328	0.874538	0.373262
	O2750	O	0.798626	0.844376	0.343237
	O2751	O	0.810012	0.904698	0.403321
	C2752	C	0.645189	0.823936	0.123213
	O2753	O	0.649761	0.800129	0.121250
	O2754	O	0.640638	0.847741	0.125211
	C2755	C	0.394883	0.968521	0.928636
	O2756	O	0.386777	0.942508	0.919598
	O2757	O	0.402968	0.994534	0.937674
	C2758	C	0.982335	0.074841	0.876372
	O2759	O	0.976156	0.045080	0.845366
	O2760	O	0.988515	0.104620	0.907412
	C2761	C	0.120968	0.460830	0.608349
	O2762	O	0.103499	0.474678	0.605573
	O2763	O	0.138456	0.446984	0.611091
	C2764	C	0.189671	0.879108	0.421464
	O2765	O	0.172951	0.879462	0.400511
	O2766	O	0.206373	0.878771	0.442451
	C2767	C	0.102321	0.249665	0.304378
	O2768	O	0.108182	0.263483	0.341612
	O2769	O	0.096459	0.235810	0.267109
	C2770	C	0.037498	0.362622	0.478298
	O2771	O	0.041261	0.384176	0.517361
	O2772	O	0.033715	0.341068	0.439235
	C2773	C	0.488271	0.574781	0.544610
	O2774	O	0.502864	0.594861	0.576090
	O2775	O	0.473677	0.554701	0.513130
	C2776	C	0.511597	0.223274	0.198766
	O2777	O	0.490157	0.229078	0.211460
	O2778	O	0.533038	0.217489	0.186106
	C2779	C	0.628196	0.255666	0.180420
	O2780	O	0.621704	0.264805	0.214303
	O2781	O	0.634687	0.246509	0.146502
	C2782	C	0.663650	0.729357	0.684037
	O2783	O	0.664269	0.699518	0.650729
	O2784	O	0.663011	0.759196	0.717346
	C2785	C	0.948802	0.023047	0.692567
	O2786	O	0.958202	-0.004678	0.666198
	O2787	O	0.939422	0.050772	0.718936
	C2788	C	0.438211	0.513388	0.579272
	O2789	O	0.445715	0.540937	0.591966
	O2790	O	0.430709	0.485857	0.566612
	C2791	C	0.556818	0.032838	0.976669
	O2792	O	0.559985	0.010704	0.938249
	O2793	O	0.553629	0.054975	1.015055
	C2794	C	0.846107	0.200900	0.613528
	O2795	O	0.850809	0.171069	0.593692
	O2796	O	0.841425	0.230711	0.633364
	C2797	C	0.536418	0.470986	0.604389
	O2798	O	0.558002	0.465642	0.592372
	O2799	O	0.514833	0.476331	0.616405
	C2800	C	0.516998	0.246778	0.725233
	O2801	O	0.499071	0.261664	0.747777
	O2802	O	0.534927	0.231930	0.702722
	C2803	C	0.812419	0.525357	0.510354
	O2804	O	0.803283	0.502739	0.507950
	O2805	O	0.821535	0.547958	0.512723
	C2806	C	0.933153	0.520999	0.454840
	O2807	O	0.919160	0.498467	0.423834
	O2808	O	0.947128	0.543550	0.485880
	C2809	C	0.872132	0.267930	0.195821
	O2810	O	0.857284	0.246174	0.187562
	O2811	O	0.887000	0.289706	0.204081
	C2812	C	0.894551	0.592389	0.556491
	O2813	O	0.896515	0.579566	0.519358
	O2814	O	0.892605	0.605193	0.593591
	C2815	C	0.139710	0.745878	0.436866
	O2816	O	0.118668	0.733233	0.430874
	O2817	O	0.160774	0.758541	0.442891
	C2818	C	0.780402	0.356245	0.986384
	O2819	O	0.782340	0.342964	1.001684
	O2820	O	0.778444	0.369505	0.971084
	C2821	C	0.182273	0.888193	0.035745
	O2822	O	0.171826	0.900518	0.022307
	O2823	O	0.192700	0.875869	0.049184
	C2824	C	0.445362	0.488474	0.905212
	O2825	O	0.464362	0.506641	0.926504
	O2826	O	0.426362	0.470327	0.883921
	C2827	C	0.400487	0.716557	0.531544
	O2828	O	0.398511	0.689881	0.524165
	O2829	O	0.402442	0.743233	0.538923
	C2830	C	0.944436	0.986569	0.497051
	O2831	O	0.944239	0.985718	0.467094
	O2832	O	0.944651	0.987383	0.526974
	C2833	C	0.372190	0.042092	0.892078
	O2834	O	0.378797	0.072246	0.915435
	O2835	O	0.365585	0.011956	0.868756
	C2836	C	0.963895	0.745138	0.080529
	O2837	O	0.941299	0.745907	0.086216
	O2838	O	0.986491	0.744348	0.074842
	C2839	C	0.017695	0.023375	0.933781
	O2840	O	0.021268	-0.003268	0.925860
	O2841	O	0.014123	0.049998	0.941702
	C2842	C	0.820973	0.214310	0.002369
	O2843	O	0.833423	0.241002	0.021799
	O2844	O	0.808503	0.187617	-0.017060
	C2845	C	0.625463	0.775509	0.561975
	O2846	O	0.639667	0.758057	0.563769
	O2847	O	0.611237	0.792922	0.560147
	C2848	C	0.014312	0.922013	0.116410
	O2849	O	0.022512	0.893772	0.088348
	O2850	O	0.006113	0.950275	0.144471
	C2851	C	0.650224	0.834997	0.733695
	O2852	O	0.634867	0.852574	0.760978
	O2853	O	0.665579	0.817383	0.706378
	C2854	C	0.935987	0.992075	0.090853
	O2855	O	0.928493	1.020643	0.109098
	O2856	O	0.943463	0.963525	0.072642
	C2857	C	0.418113	0.949578	0.637426
	O2858	O	0.400367	0.963123	0.634684
	O2859	O	0.435840	0.936012	0.640168
	C2860	C	0.559576	0.496844	0.754580
	O2861	O	0.573388	0.522160	0.771979
	O2862	O	0.545784	0.471528	0.737182
	C2863	C	0.818315	0.090522	0.611362
	O2864	O	0.817189	0.060383	0.593591
	O2865	O	0.819441	0.120643	0.629099
	C2866	C	0.492343	0.885478	0.074165
	O2867	O	0.481363	0.911573	0.089330
	O2868	O	0.503343	0.859383	0.059000
	C2869	C	0.722060	0.588141	0.820858
	O2870	O	0.744158	0.597016	0.835041
	O2871	O	0.699983	0.579286	0.806675
	C2872	C	0.560752	0.514544	0.444279
	O2873	O	0.578539	0.526851	0.440183
	O2874	O	0.542967	0.502254	0.448409
	C2875	C	0.123144	0.227544	0.002708
	O2876	O	0.123826	0.224179	0.028975
	O2877	O	0.122441	0.230892	-0.023593
	C2878	C	0.278610	0.424993	0.859616
	O2879	O	0.264745	0.404242	0.827324
	O2880	O	0.292495	0.445744	0.891909
	C2881	C	0.021744	0.282199	0.128562
	O2882	O	0.044367	0.281617	0.123078
	O2883	O	-0.000858	0.282799	0.134079
	C2884	C	0.865330	0.305524	0.531578
	O2885	O	0.843753	0.313911	0.531307
	O2886	O	0.886886	0.297138	0.531848
	C2887	C	0.461550	0.551894	0.143252
	O2888	O	0.453878	0.555998	0.118982
	O2889	O	0.469223	0.547789	0.167557
	C2890	C	0.652581	0.729611	0.995760
	O2891	O	0.663990	0.753343	1.029712
	O2892	O	0.641171	0.705841	0.961775
	C2893	C	0.469256	0.878765	0.263419
	O2894	O	0.481482	0.853468	0.247984
	O2895	O	0.457031	0.904042	0.278855
	C2896	C	0.511895	0.130878	0.590172
	O2897	O	0.489406	0.137069	0.592067
	O2898	O	0.534383	0.124688	0.588276
	C2899	C	0.032757	0.249740	0.950706
	O2900	O	0.040825	0.276929	0.985098
	O2901	O	0.024671	0.222569	0.916349
	C2902	C	0.268714	0.878305	0.721780
	O2903	O	0.271044	0.897137	0.714502
	O2904	O	0.266384	0.859455	0.729024
	C2905	C	0.681286	0.653391	0.267718
	O2906	O	0.666210	0.636971	0.236306
	O2907	O	0.696361	0.669811	0.299131
	C2908	C	0.784453	0.852753	0.169825
	O2909	O	0.794239	0.862263	0.203539
	O2910	O	0.774669	0.843261	0.136144
	C2911	C	0.056750	0.449539	0.656890
	O2912	O	0.045988	0.474688	0.686711
	O2913	O	0.067491	0.424393	0.627034
	C2914	C	0.176285	0.335374	0.430604
	O2915	O	0.159183	0.313732	0.414999
	O2916	O	0.193408	0.357037	0.446208
	C2917	C	0.360811	0.196848	0.623040
	O2918	O	0.348033	0.221305	0.636512
	O2919	O	0.373588	0.172372	0.609534
	C2920	C	0.236824	0.781999	0.187460
	O2921	O	0.258327	0.794897	0.198766
	O2922	O	0.215321	0.769102	0.176154
	C2923	C	0.451565	0.505449	0.364326
	O2924	O	0.453936	0.535664	0.382808
	O2925	O	0.449173	0.475196	0.345810
	C2926	C	0.983849	0.702084	0.523386
	O2927	O	0.969257	0.681841	0.491940
	O2928	O	0.998440	0.722308	0.554799
	C2929	C	0.988723	0.078104	0.542410
	O2930	O	0.992659	0.048367	0.511335
	O2931	O	0.984767	0.107861	0.573484
	C2932	C	0.562406	0.494872	0.084523
	O2933	O	0.546053	0.471846	0.064416
	O2934	O	0.578760	0.517916	0.104664
	C2935	C	0.355766	0.658006	0.963366
	O2936	O	0.355004	0.631230	0.925860
	O2937	O	0.356509	0.684782	1.000872
	C2938	C	0.932158	0.548985	0.298183
	O2939	O	0.928827	0.519090	0.280683
	O2940	O	0.935510	0.578900	0.315683
	C2941	C	0.475660	0.867017	0.731732
	O2942	O	0.478679	0.837940	0.698085
	O2943	O	0.472639	0.896076	0.765345
	C2944	C	0.930543	0.562561	0.857619
	O2945	O	0.908583	0.566745	0.851797
	O2946	O	0.952503	0.558376	0.863441
	C2947	C	0.061660	0.010826	0.251809
	O2948	O	0.047009	0.033768	0.265823
	O2949	O	0.076290	-0.012116	0.237795
	C2950	C	0.337812	0.701338	0.578527
	O2951	O	0.335816	0.676601	0.575413
	O2952	O	0.339808	0.726075	0.581642
	C2953	C	0.452895	0.929993	0.003520
	O2954	O	0.450213	0.960420	0.033477
	O2955	O	0.455578	0.899566	-0.026437
	C2956	C	0.700561	0.381514	0.059305
	O2957	O	0.715736	0.358781	0.039638
	O2958	O	0.685406	0.404209	0.078938
	C2959	C	0.084786	0.479399	0.209158
	O2960	O	0.095685	0.506148	0.240300
	O2961	O	0.073908	0.452629	0.178016
	C2962	C	0.199157	0.886261	0.883954
	O2963	O	0.208477	0.868769	0.890623
	O2964	O	0.189837	0.903774	0.877286
	C2965	C	0.653663	0.341814	0.698627
	O2966	O	0.642273	0.322595	0.663253
	O2967	O	0.665053	0.361033	0.734000
	C2968	C	0.484536	0.812920	0.125854
	O2969	O	0.497892	0.792569	0.123044
	O2970	O	0.471161	0.833271	0.128663
	C2971	C	0.505332	0.199229	0.854031
	O2972	O	0.519469	0.175876	0.830133
	O2973	O	0.491215	0.222561	0.877929
	C2974	C	0.704016	0.327890	0.270832
	O2975	O	0.687514	0.322813	0.245411
	O2976	O	0.720540	0.333004	0.296288
	C2977	C	0.468190	0.759033	0.605641
	O2978	O	0.488701	0.756002	0.591187
	O2979	O	0.447678	0.762066	0.620061
	C2980	C	0.467656	0.444160	0.469869
	O2981	O	0.456867	0.424430	0.434022
	O2982	O	0.478445	0.463890	0.505716
	C2983	C	0.013027	0.332985	0.084421
	O2984	O	0.027769	0.331233	0.106288
	O2985	O	-0.001735	0.334737	0.062554
	C2986	C	0.006464	0.933598	0.642944
	O2987	O	0.007950	0.912781	0.603949
	O2988	O	0.004996	0.954398	0.681905
	C2989	C	0.034571	0.025823	0.733187
	O2990	O	0.016182	0.037902	0.729227
	O2991	O	0.052961	0.013782	0.737182
	C2992	C	0.311803	0.366723	0.979479
	O2993	O	0.297403	0.342075	0.952906
	O2994	O	0.326203	0.391334	1.006017
	C2995	C	0.958006	0.050838	0.357014
	O2996	O	0.945394	0.046677	0.328445
	O2997	O	0.970618	0.054979	0.385583
	C2998	C	0.149793	0.733080	0.856401
	O2999	O	0.131077	0.724868	0.832469
	O3000	O	0.168511	0.741310	0.880366
	C3001	C	0.529610	0.122362	0.728584
	O3002	O	0.543949	0.099256	0.715281
	O3003	O	0.515250	0.145451	0.741853
	C3004	C	0.450655	0.452985	0.977549
	O3005	O	0.446059	0.457986	1.009706
	O3006	O	0.455251	0.448003	0.945426
	C3007	C	0.064976	0.437450	0.028705
	O3008	O	0.061230	0.409781	0.018279
	O3009	O	0.068741	0.465139	0.039130
	C3010	C	0.133036	0.735965	0.303091
	O3011	O	0.150625	0.743606	0.292530
	O3012	O	0.115467	0.728304	0.313652
	C3013	C	0.534766	0.546268	0.383925
	O3014	O	0.545606	0.573501	0.414051
	O3015	O	0.523927	0.519016	0.353798
	C3016	C	0.492630	0.787399	0.451895
	O3017	O	0.469571	0.789791	0.451760
	O3018	O	0.515670	0.785006	0.452064
	C3019	C	0.871982	0.211514	0.908936
	O3020	O	0.863225	0.192687	0.913539
	O3021	O	0.880739	0.230320	0.904332
	C3022	C	0.815868	0.102853	0.956731
	O3023	O	0.797987	0.116330	0.954125
	O3024	O	0.833749	0.089396	0.959338
	C3025	C	0.011415	0.283579	0.455111
	O3026	O	0.034045	0.287606	0.465774
	O3027	O	-0.011234	0.279573	0.444448
	C3028	C	0.017467	0.929225	0.788193
	O3029	O	0.014849	0.958087	0.822415
	O3030	O	0.020105	0.900344	0.753971
	C3031	C	0.144315	0.692960	0.615593
	O3032	O	0.154001	0.720428	0.647412
	O3033	O	0.134609	0.665491	0.583774
	C3034	C	0.641684	0.062864	0.979749
	O3035	O	0.624107	0.048418	0.980866
	O3036	O	0.659281	0.077330	0.978632
	C3037	C	0.363757	0.209668	0.772284
	O3038	O	0.341647	0.209336	0.761790
	O3039	O	0.385867	0.209981	0.782777
	C3040	C	0.715727	0.874215	0.693346
	O3041	O	0.708523	0.857165	0.701605
	O3042	O	0.722931	0.891286	0.685087
	C3043	C	0.858764	0.322288	0.049184
	O3044	O	0.865855	0.348066	0.085674
	O3045	O	0.851693	0.296528	0.012728
	C3046	C	0.192029	0.910173	0.695377
	O3047	O	0.179585	0.932914	0.724962
	O3048	O	0.204452	0.887432	0.665792
	C3049	C	0.023715	0.273141	0.611666
	O3050	O	0.045548	0.284136	0.618436
	O3051	O	0.001883	0.262184	0.604930
	C3052	C	0.004107	0.958112	0.296592
	O3053	O	0.022794	0.959615	0.316327
	O3054	O	-0.014579	0.956626	0.276892
	C3055	C	0.989141	0.696369	0.700048
	O3056	O	1.005338	0.702590	0.685899
	O3057	O	0.972963	0.690148	0.714197
	C3058	C	0.639018	0.802512	0.225880
	O3059	O	0.661119	0.795732	0.226388
	O3060	O	0.616916	0.809311	0.225372
	C3061	C	0.020520	0.275169	0.770625
	O3062	O	-0.002220	0.271225	0.771268
	O3063	O	0.043240	0.279113	0.769982
	C3064	C	0.482179	0.451531	0.731562
	O3065	O	0.482860	0.432465	0.738739
	O3066	O	0.481500	0.470595	0.724420
	C3067	C	0.860073	0.333540	0.382537
	O3068	O	0.846399	0.308305	0.355085
	O3069	O	0.873769	0.358773	0.410023
	C3070	C	0.015590	0.379797	0.731698
	O3071	O	0.021015	0.349862	0.705126
	O3072	O	0.010167	0.409750	0.758304
	C3073	C	0.950317	0.047405	0.028366
	O3074	O	0.964181	0.028174	-0.000982
	O3075	O	0.936454	0.066654	0.057748
	C3076	C	0.583147	0.040082	0.130965
	O3077	O	0.588729	0.068474	0.165661
	O3078	O	0.577583	0.011692	0.096235
	C3079	C	0.543508	0.499739	0.967225
	O3080	O	0.543175	0.529024	1.001718
	O3081	O	0.543840	0.470435	0.932698
	C3082	C	0.249275	0.412008	0.043463
	O3083	O	0.270141	0.416004	0.035508
	O3084	O	0.228430	0.408030	0.051452
	C3085	C	0.144918	0.677164	0.921325
	O3086	O	0.138288	0.647110	0.898950
	O3087	O	0.151547	0.707219	0.943699
	C3088	C	0.988583	0.012000	0.607604
	O3089	O	0.972617	0.032643	0.617353
	O3090	O	1.004550	-0.008643	0.597856
	C3091	C	0.574215	0.244542	0.971964
	O3092	O	0.592982	0.251262	0.995083
	O3093	O	0.555446	0.237803	0.948811
	C3094	C	0.265576	0.135733	0.658379
	O3095	O	0.262138	0.151589	0.646769
	O3096	O	0.269014	0.119877	0.669990
	C3097	C	0.221913	0.432553	0.462626
	O3098	O	0.218218	0.456594	0.500334
	O3099	O	0.225608	0.408495	0.424883
	C3100	C	0.698917	0.346523	0.135569
	O3101	O	0.695858	0.357844	0.117967
	O3102	O	0.701996	0.335185	0.153137
	C3103	C	0.397684	0.912151	0.295069
	O3104	O	0.393169	0.893822	0.256311
	O3105	O	0.402200	0.930478	0.333861
	C3106	C	0.660053	0.683815	0.181097
	O3107	O	0.654852	0.712882	0.197751
	O3108	O	0.665274	0.654767	0.164476
	C3109	C	0.286954	0.646422	0.952839
	O3110	O	0.286116	0.677155	0.983033
	O3111	O	0.287812	0.615690	0.922645
	C3112	C	0.715861	0.611254	0.960387
	O3113	O	0.735246	0.628811	0.971795
	O3114	O	0.696477	0.593717	0.948980
	C3115	C	0.683566	0.696333	0.082255
	O3116	O	0.697213	0.672008	0.060151
	O3117	O	0.669918	0.720657	0.104359
	C3118	C	0.224714	0.636943	0.359519
	O3119	O	0.221279	0.610323	0.322081
	O3120	O	0.228147	0.663546	0.396923
