data_Molecule from CHK

_cell_length_a		62.327723
_cell_length_b		99.704600
_cell_length_c		68.291089
_cell_angle_alpha	139.845310
_cell_angle_beta	119.212699
_cell_angle_gamma	89.711972
_symmetry_space_group_name_H-M	'P 1'
_symmetry_Int_Tables_number		1

loop_
	_symmetry_equiv_pos_as_xyz
	x,y,z

loop_
	_atom_site_label
	_atom_site_type_symbol
	_atom_site_fract_x
	_atom_site_fract_y
	_atom_site_fract_z
	C0	C	0.047624	0.150297	0.024488
	C1	C	0.039364	0.141329	0.030064
	C2	C	0.017168	0.141719	0.030665
	C3	C	0.003779	0.151403	0.026195
	C4	C	0.012255	0.160690	0.020958
	C5	C	0.033746	0.159863	0.019528
	C6	C	0.057612	0.132283	0.034268
	C7	C	0.073173	0.148990	0.028091
	N8	N	0.078373	0.138168	0.034390
	O9	O	0.087491	0.155638	0.026701
	O10	O	0.055919	0.121806	0.036848
	C11	C	-0.018243	0.150144	0.029170
	C12	C	0.002988	0.132829	0.034754
	N13	N	-0.017400	0.139205	0.035072
	O14	O	0.006465	0.121671	0.036138
	O15	O	-0.034135	0.156722	0.026865
	C16	C	0.037866	0.171074	0.013594
	C17	C	0.002768	0.173197	0.017567
	N18	N	0.018861	0.179038	0.013203
	O19	O	-0.013918	0.178794	0.019943
	O20	O	0.053687	0.173508	0.009927
	F21	F	0.079282	0.104369	-0.028282
	C22	C	0.100084	0.116269	0.009214
	C23	C	0.119387	0.109581	0.014217
	F24	F	0.115306	0.090136	-0.019967
	C25	C	0.142889	0.122981	0.054383
	C26	C	0.146955	0.143923	0.089681
	F27	F	0.170556	0.158605	0.129856
	C28	C	0.126959	0.149936	0.084037
	F29	F	0.131912	0.170246	0.118876
	C30	C	0.101954	0.135143	0.042659
	F31	F	0.064715	0.264651	0.098446
	C32	C	0.041659	0.237302	0.057932
	C33	C	0.043290	0.222226	0.055534
	F34	F	0.068441	0.235134	0.093406
	C35	C	0.018876	0.193719	0.014106
	C36	C	-0.005951	0.180513	-0.025578
	F37	F	-0.029046	0.153192	-0.065893
	C38	C	-0.006888	0.195495	-0.023509
	F39	F	-0.030390	0.182335	-0.062103
	C40	C	0.016353	0.224171	0.018437
	F41	F	1.008692	0.170367	0.116348
	C42	C	0.977001	0.148688	0.077233
	C43	C	0.957623	0.141399	0.076914
	F44	F	0.970671	0.156643	0.115932
	C45	C	0.924624	0.118100	0.036085
	C46	C	0.911105	0.103731	-0.003488
	F47	F	0.879326	0.082171	-0.042658
	C48	C	0.930396	0.111177	-0.002988
	F49	F	0.916821	0.096526	-0.041743
	C50	C	0.963719	0.133321	0.036928
	C51	C	0.188440	0.104332	0.076902
	C52	C	0.197545	0.106805	0.064326
	C53	C	0.216949	0.100515	0.060499
	C54	C	0.227737	0.092746	0.070789
	C55	C	0.220577	0.092208	0.086666
	C56	C	0.200161	0.097096	0.088345
	C57	C	0.180840	0.114092	0.053190
	C58	C	0.165271	0.109556	0.073552
	N59	N	0.161967	0.115849	0.059843
	O60	O	0.151016	0.108440	0.079839
	O61	O	0.182317	0.117892	0.040817
	C62	C	0.244462	0.084104	0.058879
	C63	C	0.226764	0.097141	0.041578
	N64	N	0.243464	0.087293	0.041689
	O65	O	0.220589	0.100262	0.026338
	O66	O	0.255148	0.074504	0.060214
	C67	C	0.193437	0.091170	0.100267
	C68	C	0.228416	0.083838	0.098580
	N69	N	0.210842	0.083002	0.105455
	O70	O	0.245700	0.078474	0.101913
	O71	O	0.176384	0.091991	0.103979
	C72	C	-0.020764	0.263104	0.001971
	C73	C	-0.008275	0.279118	0.008635
	C74	C	0.021652	0.289112	0.025592
	C75	C	0.037837	0.281534	0.032946
	C76	C	0.025844	0.266168	0.027812
	C77	C	-0.002835	0.257639	0.013652
	C78	C	-0.032745	0.280858	-0.007949
	C79	C	-0.054331	0.253270	-0.020662
	N80	N	-0.060583	0.263819	-0.027319
	O81	O	-0.073674	0.238488	-0.033262
	O82	O	-0.030806	0.293807	-0.006101
	C83	C	0.066465	0.291949	0.044545
	C84	C	0.040179	0.305808	0.034559
	N85	N	0.066399	0.306226	0.044605
	O86	O	0.035083	0.316999	0.033591
	O87	O	0.085703	0.288754	0.051162
	C88	C	-0.009800	0.241212	0.010347
	C89	C	0.037327	0.254386	0.031838
	N90	N	0.014822	0.239454	0.020702
	O91	O	0.060536	0.256285	0.041985
	O92	O	-0.031065	0.231674	0.002034
	C93	C	0.827053	0.057252	-0.008278
	C94	C	0.838086	0.077500	0.005391
	C95	C	0.864096	0.086277	0.014481
	C96	C	0.878812	0.075112	0.010990
	C97	C	0.868033	0.055227	-0.001638
	C98	C	0.841546	0.045801	-0.012538
	C99	C	0.817056	0.085070	0.006427
	C100	C	0.799912	0.051686	-0.015123
	N101	N	0.794220	0.068329	-0.007096
	O102	O	0.785441	0.036686	-0.024567
	O103	O	0.818329	0.101873	0.016990
	C104	C	0.905804	0.088005	0.022848
	C105	C	0.880650	0.105991	0.026708
	N106	N	0.906019	0.106455	0.032221
	O107	O	0.874413	0.118651	0.030106
	O108	O	0.924094	0.083874	0.023811
	C109	C	0.834273	0.024092	-0.026394
	C110	C	0.879339	0.040185	-0.007140
	N111	N	0.858155	0.021974	-0.021635
	O112	O	0.901541	0.042218	-0.000854
	O113	O	0.812958	0.010289	-0.039475
	F114	F	0.174205	0.027314	0.025294
	C115	C	0.183784	0.039404	0.060599
	C116	C	0.173369	0.023474	0.054863
	F117	F	0.153984	-0.003805	0.014125
	C118	C	0.182270	0.035578	0.090848
	C119	C	0.203837	0.064172	0.133791
	F120	F	0.214051	0.076191	0.169265
	C121	C	0.214298	0.080157	0.139502
	F122	F	0.234468	0.107428	0.180367
	C123	C	0.203482	0.067877	0.102555
	F124	F	0.192714	0.040599	-0.050989
	C125	C	0.222218	0.051114	-0.031735
	C126	C	0.225691	0.038638	-0.059085
	F127	F	0.199455	0.016791	-0.104299
	C128	C	0.256464	0.049056	-0.039316
	C129	C	0.283108	0.070629	0.007612
	F130	F	0.312671	0.079798	0.026692
	C131	C	0.279371	0.082900	0.034757
	F132	F	0.305047	0.102970	0.079122
	C133	C	0.248889	0.074389	0.015748
	F134	F	0.892693	0.226387	-0.117793
	C135	C	0.888667	0.242041	-0.092502
	C136	C	0.863148	0.241235	-0.109665
	F137	F	0.842070	0.223967	-0.152159
	C138	C	0.859623	0.258540	-0.082681
	C139	C	0.881143	0.275206	-0.039348
	F140	F	0.879470	0.292685	-0.011596
	C141	C	0.904763	0.274195	-0.024051
	F142	F	0.922735	0.288108	0.015238
	C143	C	0.910483	0.259225	-0.048709
	F144	F	0.134633	0.347726	0.116314
	C145	C	0.116290	0.332774	0.076026
	C146	C	0.130719	0.337717	0.069692
	F147	F	0.162896	0.356681	0.103390
	C148	C	0.111779	0.323093	0.028429
	C149	C	0.078174	0.304290	-0.005193
	F150	F	0.058990	0.292165	-0.042897
	C151	C	0.064026	0.297691	-0.000519
	F152	F	0.032005	0.277104	-0.036064
	C153	C	0.082708	0.312336	0.040648
	F154	F	0.876397	0.038677	0.043333
	C155	C	0.870026	0.015749	0.009119
	C156	C	0.869990	-0.000135	0.005100
	F157	F	0.872950	0.006073	0.032204
	C158	C	0.866068	-0.022944	-0.027688
	C159	C	0.860672	-0.030187	-0.057968
	F160	F	0.857385	-0.051677	-0.089227
	C161	C	0.858083	-0.015595	-0.056430
	F162	F	0.850623	-0.024111	-0.087796
	C163	C	0.862919	0.007698	-0.022614
	F164	F	0.807953	0.112666	0.068375
	C165	C	0.777080	0.089572	0.027376
	C166	C	0.752922	0.087665	0.023752
	F167	F	0.760878	0.109202	0.061245
	C168	C	0.720427	0.063707	-0.018689
	C169	C	0.712838	0.041545	-0.057299
	F170	F	0.682006	0.018227	-0.098063
	C171	C	0.736927	0.043746	-0.053801
	F172	F	0.728941	0.022765	-0.091502
	C173	C	0.769504	0.067698	-0.011275
	C174	C	0.118793	-0.015914	0.038836
	C175	C	0.137245	-0.023758	0.037450
	C176	C	0.125860	-0.048246	0.013866
	C177	C	0.095848	-0.064771	-0.008715
	C178	C	0.077605	-0.056672	-0.006635
	C179	C	0.088922	-0.032315	0.016999
	C180	C	0.167883	-0.002118	0.064181
	C181	C	0.137399	0.011371	0.067648
	N182	N	0.166159	0.018189	0.080641
	O183	O	0.130224	0.025350	0.078115
	O184	O	0.189927	-0.001309	0.070856
	C185	C	0.090238	-0.088735	-0.029035
	C186	C	0.140278	-0.061647	0.007654
	N187	N	0.117397	-0.086025	-0.018710
	O188	O	0.165643	-0.054328	0.021356
	O189	O	0.067599	-0.107168	-0.050128
	C190	C	0.067132	-0.026915	0.019783
	C191	C	0.046632	-0.069100	-0.023744
	N192	N	0.042840	-0.049425	-0.004073
	O193	O	0.027799	-0.091162	-0.049063
	O194	O	0.069424	-0.007387	0.039473
	C195	C	0.309527	0.024057	-0.108127
	C196	C	0.300016	0.018393	-0.099227
	C197	C	0.282057	0.024925	-0.092096
	C198	C	0.272133	0.035663	-0.096458
	C199	C	0.280164	0.040076	-0.107861
	C200	C	0.299525	0.035047	-0.112392
	C201	C	0.314527	0.007634	-0.095147
	C202	C	0.333098	0.019357	-0.105829
	N203	N	0.335397	0.009793	-0.097314
	O204	O	0.348413	0.023283	-0.108876
	O205	O	0.310278	-0.001171	-0.090616
	C206	C	0.258584	0.045010	-0.079164
	C207	C	0.272777	0.024875	-0.075550
	N208	N	0.260510	0.038669	-0.065849
	O209	O	0.275440	0.016098	-0.069622
	O210	O	0.249527	0.057142	-0.073869
	C211	C	0.307228	0.044948	-0.118799
	C212	C	0.272953	0.051459	-0.114390
	N213	N	0.290945	0.054974	-0.119040
	O214	O	0.255113	0.056349	-0.116635
	O215	O	0.324017	0.045225	-0.122521
	C216	C	0.772239	0.285706	-0.096309
	C217	C	0.781464	0.274357	-0.093009
	C218	C	0.799369	0.267766	-0.100236
	C219	C	0.809446	0.274003	-0.108136
	C220	C	0.798677	0.284233	-0.113752
	C221	C	0.779348	0.289297	-0.109164
	C222	C	0.772787	0.274832	-0.075549
	C223	C	0.758561	0.294940	-0.079216
	N224	N	0.760664	0.288743	-0.065655
	O225	O	0.749340	0.306943	-0.074149
	O226	O	0.775730	0.266296	-0.069192
	C227	C	0.832840	0.269129	-0.106164
	C228	C	0.814369	0.257478	-0.095331
	N229	N	0.835267	0.259687	-0.097439
	O230	O	0.810404	0.248928	-0.090328
	O231	O	0.847976	0.272879	-0.109536
	C232	C	0.772663	0.301178	-0.114811
	C233	C	0.806883	0.294598	-0.119305
	N234	N	0.790756	0.304766	-0.119298
	O235	O	0.823875	0.295059	-0.122672
	O236	O	0.755066	0.306321	-0.116640
	C237	C	0.125808	0.332207	-0.028061
	C238	C	0.142428	0.329503	-0.037239
	C239	C	0.160694	0.322584	-0.030679
	C240	C	0.161899	0.317681	-0.016001
	C241	C	0.145964	0.321375	-0.005090
	C242	C	0.128653	0.329119	-0.010348
	C243	C	0.139084	0.337639	-0.049352
	C244	C	0.110088	0.341251	-0.035635
	N245	N	0.119895	0.345018	-0.046939
	O246	O	0.092828	0.345283	-0.032809
	O247	O	0.150673	0.339150	-0.057910
	C248	C	0.184374	0.311585	-0.011288
	C249	C	0.181717	0.319886	-0.035940
	N250	N	0.195747	0.313670	-0.023275
	O251	O	0.187273	0.322829	-0.047418
	O252	O	0.192170	0.306124	0.000222
	C253	C	0.115786	0.333255	0.006042
	C254	C	0.142184	0.318039	0.011430
	N255	N	0.124665	0.326390	0.018974
	O256	O	0.150765	0.309335	0.016515
	O257	O	0.100965	0.341111	0.008737
	C258	C	0.922732	-0.049878	-0.000485
	C259	C	0.914888	-0.071308	-0.016720
	C260	C	0.884058	-0.089296	-0.041906
	C261	C	0.861251	-0.086234	-0.051770
	C262	C	0.868878	-0.065317	-0.037514
	C263	C	0.899731	-0.047407	-0.011822
	C264	C	0.942718	-0.071019	-0.006108
	C265	C	0.956988	-0.032652	0.027238
	N266	N	0.966598	-0.047877	0.018325
	O267	O	0.973875	-0.010107	0.052820
	O268	O	0.945392	-0.086885	-0.016538
	C269	C	0.831431	-0.108205	-0.077792
	C270	C	0.869555	-0.113323	-0.061926
	N271	N	0.838067	-0.123848	-0.082821
	O272	O	0.881457	-0.122464	-0.060710
	O273	O	0.806548	-0.112487	-0.091933
	C274	C	0.902063	-0.028799	-0.004272
	C275	C	0.850715	-0.056804	-0.044315
	N276	N	0.871810	-0.035813	-0.025858
	O277	O	0.824642	-0.064332	-0.060208
	O278	O	0.924520	-0.011196	0.015251
	C279	C	0.659795	0.071770	-0.032312
	C280	C	0.661660	0.067560	-0.016503
	C281	C	0.645186	0.070710	-0.006478
	C282	C	0.627411	0.077992	-0.012483
	C283	C	0.625358	0.081843	-0.028955
	C284	C	0.641434	0.078595	-0.039031
	C285	C	0.684160	0.061498	-0.011731
	C286	C	0.681311	0.069588	-0.036724
	N287	N	0.695600	0.063654	-0.023597
	O288	O	0.686986	0.072656	-0.047996
	O289	O	0.691972	0.056056	-0.000189
	C290	C	0.614960	0.082534	0.004563
	C291	C	0.641507	0.067460	0.010190
	N292	N	0.623957	0.075781	0.017680
	O293	O	0.650171	0.058832	0.015406
	O294	O	0.600326	0.090562	0.007545
	C295	C	0.638529	0.087161	-0.050417
	C296	C	0.609277	0.090522	-0.037138
	N297	N	0.619286	0.094491	-0.048094
	O298	O	0.591665	0.094198	-0.034916
	O299	O	0.650435	0.088982	-0.058437
	F300	F	-0.044187	-0.051221	-0.030133
	C301	C	-0.019880	-0.049702	-0.011151
	C302	C	-0.002108	-0.051146	-0.018380
	F303	F	-0.010002	-0.054824	-0.044923
	C304	C	0.023893	-0.048908	0.001783
	C305	C	0.031150	-0.045877	0.028390
	F306	F	0.056113	-0.043699	0.047947
	C307	C	0.013120	-0.044723	0.035253
	F308	F	0.021063	-0.041115	0.061715
	C309	C	-0.013086	-0.047180	0.014756
	F310	F	0.097571	0.364097	-0.098022
	C311	C	0.109206	0.371934	-0.065941
	C312	C	0.106947	0.353867	-0.074456
	F313	F	0.091319	0.328080	-0.115769
	C314	C	0.120959	0.362557	-0.039940
	C315	C	0.137899	0.389826	0.003484
	F316	F	0.153032	0.399034	0.037749
	C317	C	0.138697	0.407391	0.011235
	F318	F	0.153837	0.433069	0.052358
	C319	C	0.123133	0.398216	-0.024038
	F320	F	0.379470	0.042744	-0.011512
	C321	C	0.381143	0.025242	-0.039250
	C322	C	0.404822	0.024305	-0.023844
	F323	F	0.422751	0.038225	0.015444
	C324	C	0.410614	0.009384	-0.048415
	C325	C	0.388893	-0.007745	-0.092157
	F326	F	0.392910	-0.023438	-0.117440
	C327	C	0.363334	-0.008611	-0.109415
	F328	F	0.342314	-0.025862	-0.151891
	C329	C	0.359740	0.008649	-0.082513
	F330	F	0.275212	0.034445	-0.187451
	C331	C	0.291810	0.061188	-0.147363
	C332	C	0.304013	0.078872	-0.138187
	F333	F	0.300739	0.069227	-0.168388
	C334	C	0.320069	0.106691	-0.097426
	C335	C	0.322326	0.115972	-0.067168
	F336	F	0.335563	0.142023	-0.029554
	C337	C	0.311805	0.098666	-0.075140
	F338	F	0.315841	0.108495	-0.044370
	C339	C	0.297428	0.071217	-0.114598
	F340	F	0.836112	0.392112	-0.028953
	C341	C	0.822565	0.365990	-0.066847
	C342	C	0.811987	0.348625	-0.074942
	F343	F	0.816100	0.358416	-0.044156
	C344	C	0.797430	0.321140	-0.114579
	C345	C	0.791848	0.311179	-0.147271
	F346	F	0.775024	0.284409	-0.187543
	C347	C	0.804095	0.328915	-0.137987
	F348	F	0.800777	0.319310	-0.168185
	C349	C	0.820275	0.356750	-0.097096
	F350	F	0.699656	0.266916	-0.103983
	C351	C	0.725919	0.288806	-0.058755
	C352	C	0.722482	0.301341	-0.031354
	F353	F	0.692988	0.290844	-0.050572
	C354	C	0.749178	0.324646	0.016139
	C355	C	0.779657	0.333175	0.035127
	F356	F	0.805334	0.353195	0.079462
	C357	C	0.783358	0.320852	0.007931
	F358	F	0.812892	0.329927	0.026940
	C359	C	0.756678	0.299200	-0.039035
	F360	F	0.261112	0.359071	0.061312
	C361	C	0.252973	0.337473	0.023662
	C362	C	0.276985	0.339272	0.026994
	F363	F	0.307896	0.362334	0.067867
	C364	C	0.269225	0.317328	-0.011814
	C365	C	0.236602	0.293433	-0.054217
	F366	F	0.228452	0.272335	-0.092040
	C367	C	0.212657	0.291346	-0.057428
	F368	F	0.181806	0.268025	-0.098027
	C369	C	0.220436	0.313564	-0.018648
	F370	F	0.652219	0.148326	0.036709
	C371	C	0.637455	0.139419	0.002824
	C372	C	0.638388	0.157159	0.010961
	F373	F	0.653428	0.182743	0.052132
	C374	C	0.623101	0.148271	-0.023957
	C375	C	0.609207	0.122066	-0.065937
	F376	F	0.597963	0.114551	-0.097582
	C377	C	0.606815	0.103819	-0.074844
	F378	F	0.591299	0.078128	-0.116199
	C379	C	0.620542	0.112221	-0.040696
	F380	F	0.558315	0.041586	-0.043923
	C381	C	0.577658	0.053789	-0.006130
	C382	C	0.563686	0.047389	-0.001113
	F383	F	0.531680	0.026820	-0.036510
	C384	C	0.582527	0.062183	0.040212
	C385	C	0.616075	0.082646	0.075474
	F386	F	0.634576	0.097657	0.115837
	C387	C	0.630333	0.087403	0.068821
	F388	F	0.662493	0.106350	0.102378
	C389	C	0.611238	0.072634	0.027406
	C390	C	0.497232	0.007644	0.013587
	C391	C	0.525640	0.015821	0.027056
	C392	C	0.537857	0.031506	0.032790
	C393	C	0.521686	0.039118	0.025517
	C394	C	0.491604	0.028870	0.008107
	C395	C	0.479497	0.013432	0.002528
	C396	C	0.537377	0.004360	0.031698
	C397	C	0.490398	-0.008631	0.010578
	N398	N	0.515003	-0.010413	0.020878
	O399	O	0.469223	-0.018064	0.002471
	O400	O	0.560656	0.006350	0.042016
	C401	C	0.540185	0.055810	0.034461
	C402	C	0.566468	0.041922	0.044364
	N403	N	0.566389	0.056215	0.044453
	O404	O	0.585698	0.038716	0.050938
	O405	O	0.535080	0.067014	0.033524
	C406	C	0.445837	0.003436	-0.020369
	C407	C	0.467352	0.030985	-0.007747
	N408	N	0.439569	0.014013	-0.026970
	O409	O	0.469378	0.044107	-0.005565
	O410	O	0.426472	-0.011438	-0.033119
	C411	C	0.383760	0.160430	-0.042686
	C412	C	0.361256	0.163910	-0.051600
	C413	C	0.368785	0.184596	-0.037877
	C414	C	0.399530	0.202263	-0.012663
	C415	C	0.422866	0.200359	0.000028
	C416	C	0.414809	0.178684	-0.016803
	C417	C	0.331270	0.141742	-0.078111
	C418	C	0.369346	0.136573	-0.062313
	N419	N	0.337864	0.126068	-0.083193
	O420	O	0.381297	0.127519	-0.060874
	O421	O	0.306313	0.137362	-0.092511
	C422	C	0.402049	0.221100	-0.004617
	C423	C	0.350706	0.193186	-0.044560
	N424	N	0.371855	0.214189	-0.026048
	O425	O	0.324662	0.185723	-0.060371
	O426	O	0.424572	0.238748	0.015044
	C427	C	0.442593	0.178917	-0.006305
	C428	C	0.456981	0.217367	0.027238
	N429	N	0.466494	0.202062	0.018151
	O430	O	0.473863	0.239856	0.052663
	O431	O	0.445225	0.163015	-0.016817
	C432	C	0.688660	0.354524	0.077169
	C433	C	0.697818	0.357050	0.064681
	C434	C	0.717260	0.350796	0.060915
	C435	C	0.728039	0.343020	0.071193
	C436	C	0.720831	0.342435	0.086994
	C437	C	0.700368	0.347276	0.088592
	C438	C	0.681078	0.364301	0.053486
	C439	C	0.665448	0.359701	0.073743
	N440	N	0.662145	0.365997	0.060038
	O441	O	0.651165	0.358555	0.079980
	O442	O	0.682559	0.368107	0.041122
	C443	C	0.744783	0.334394	0.059313
	C444	C	0.727123	0.347462	0.042061
	N445	N	0.743794	0.337588	0.042133
	O446	O	0.721014	0.350637	0.026909
	O447	O	0.755470	0.324795	0.060649
	C448	C	0.693570	0.341278	0.100388
	C449	C	0.728645	0.334042	0.098871
	N450	N	0.711004	0.333141	0.105632
	O451	O	0.745955	0.328706	0.102257
	O452	O	0.676439	0.342019	0.103961
	C453	C	0.378168	0.324506	0.009678
	C454	C	0.363089	0.335328	0.012439
	C455	C	0.337153	0.326586	0.003483
	C456	C	0.326634	0.306776	-0.009184
	C457	C	0.340661	0.294892	-0.014465
	C458	C	0.366789	0.304006	-0.004323
	C459	C	0.379998	0.355421	0.025474
	C460	C	0.404880	0.337156	0.020968
	N461	N	0.405274	0.355797	0.030770
	O462	O	0.422877	0.332753	0.021296
	O463	O	0.374059	0.368397	0.029553
	C464	C	0.299486	0.301173	-0.016058
	C465	C	0.316498	0.334497	0.005343
	N466	N	0.293815	0.317859	-0.007909
	O467	O	0.317890	0.351425	0.016203
	O468	O	0.285023	0.286137	-0.025552
	C469	C	0.378395	0.289240	-0.009253
	C470	C	0.333486	0.273230	-0.028210
	N471	N	0.357342	0.271098	-0.023551
	O472	O	0.312277	0.259484	-0.041113
	O473	O	0.400695	0.291394	-0.002759
	C474	C	0.577569	0.193402	-0.006747
	C475	C	0.589323	0.218096	0.017864
	C476	C	0.619214	0.234492	0.039728
	C477	C	0.637273	0.226296	0.037375
	C478	C	0.626128	0.202056	0.014494
	C479	C	0.596282	0.185723	-0.007611
	C480	C	0.567259	0.223295	0.020060
	C481	C	0.546724	0.181079	-0.023554
	N482	N	0.542894	0.200729	-0.003957
	O483	O	0.527964	0.159067	-0.048708
	O484	O	0.569437	0.242751	0.039534
	C485	C	0.667995	0.247980	0.064277
	C486	C	0.637642	0.261593	0.068014
	N487	N	0.666313	0.268311	0.080781
	O488	O	0.630425	0.275531	0.078322
	O489	O	0.690037	0.248774	0.070966
	C490	C	0.590394	0.161522	-0.028568
	C491	C	0.640490	0.188608	0.008206
	N492	N	0.617537	0.164201	-0.018266
	O493	O	0.665866	0.195917	0.021937
	O494	O	0.567598	0.142962	-0.050030
	F495	F	0.471054	-0.096668	-0.065722
	C496	C	0.494141	-0.069345	-0.025388
	C497	C	0.493230	-0.054354	-0.023300
	F498	F	0.469662	-0.067494	-0.061861
	C499	C	0.516543	-0.025683	0.018639
	C500	C	0.541946	-0.012581	0.058075
	F501	F	0.564987	0.014769	0.098607
	C502	C	0.543552	-0.027673	0.055650
	F503	F	0.568771	-0.014791	0.093468
	C504	C	0.519071	-0.056170	0.014236
	F505	F	0.357434	0.198035	-0.089641
	C506	C	0.360466	0.219441	-0.058716
	C507	C	0.357649	0.233794	-0.057646
	F508	F	0.350018	0.225026	-0.089310
	C509	C	0.362408	0.257097	-0.024008
	C510	C	0.369894	0.265510	0.008219
	F511	F	0.376147	0.288441	0.042227
	C512	C	0.370119	0.249879	0.004708
	F513	F	0.373493	0.256474	0.032368
	C514	C	0.366109	0.226977	-0.028056
	F515	F	0.489976	0.195242	-0.044934
	C516	C	0.497861	0.198905	-0.018411
	C517	C	0.480024	0.200258	-0.011303
	F518	F	0.455651	0.198655	-0.030395
	C519	C	0.486818	0.202774	0.014598
	C520	C	0.513106	0.205347	0.035250
	F521	F	0.520935	0.208795	0.061496
	C522	C	0.531196	0.204277	0.028499
	F523	F	0.556109	0.206385	0.047961
	C524	C	0.523914	0.201211	0.001844
	F525	F	0.670555	0.408671	0.129882
	C526	C	0.647028	0.394004	0.089711
	C527	C	0.626915	0.399902	0.083910
	F528	F	0.631777	0.420166	0.118666
	C529	C	0.601920	0.385072	0.042490
	C530	C	0.600072	0.366179	0.009073
	F531	F	0.579361	0.354314	-0.028390
	C532	C	0.619481	0.359596	0.014229
	F533	F	0.615465	0.340173	-0.019890
	C534	C	0.642993	0.373053	0.054456
	F535	F	0.714097	0.326302	0.169358
	C536	C	0.704010	0.314292	0.133944
	C537	C	0.714410	0.330279	0.139635
	F538	F	0.734506	0.357546	0.180469
	C539	C	0.703641	0.318007	0.102713
	C540	C	0.683941	0.289533	0.060752
	F541	F	0.674517	0.277463	0.025531
	C542	C	0.673578	0.273602	0.055034
	F543	F	0.654260	0.246329	0.014327
	C544	C	0.682431	0.285698	0.090990
	F545	F	0.378749	0.331793	-0.043810
	C546	C	0.410524	0.353345	-0.004581
	C547	C	0.429931	0.360793	-0.003968
	F548	F	0.416449	0.346214	-0.042637
	C549	C	0.463269	0.382881	0.035980
	C550	C	0.476480	0.398111	0.076160
	F551	F	0.508165	0.419790	0.115338
	C552	C	0.456994	0.390803	0.075718
	F553	F	0.469967	0.405950	0.114641
	C554	C	0.423970	0.367560	0.034847
	C555	C	0.539115	0.391032	0.029450
	C556	C	0.547476	0.400089	0.024041
	C557	C	0.533331	0.409367	0.018553
	C558	C	0.512062	0.410427	0.020391
	C559	C	0.503504	0.401077	0.025505
	C560	C	0.516834	0.391344	0.029896
	C561	C	0.573094	0.398850	0.027786
	C562	C	0.557442	0.382073	0.033824
	N563	N	0.578295	0.388046	0.034119
	O564	O	0.555739	0.371596	0.036401
	O565	O	0.587463	0.405538	0.026480
	C566	C	0.502712	0.423061	0.017233
	C567	C	0.537972	0.421091	0.013551
	N568	N	0.519015	0.429101	0.013241
	O569	O	0.554082	0.423806	0.010402
	O570	O	0.485968	0.428603	0.019508
	C571	C	0.502563	0.382383	0.033841
	C572	C	0.481518	0.399869	0.028553
	N573	N	0.482237	0.388825	0.034262
	O574	O	0.465747	0.406568	0.026455
	O575	O	0.505926	0.371128	0.035043
	C576	C	0.020928	0.236964	0.123045
	C577	C	0.008834	0.221526	0.117474
	C578	C	-0.021063	0.211549	0.100584
	C579	C	-0.037725	0.218515	0.092082
	C580	C	-0.025276	0.234526	0.098435
	C581	C	0.003393	0.243064	0.112583
	C582	C	0.033095	0.219417	0.133333
	C583	C	0.054582	0.246947	0.145908
	N584	N	0.060847	0.236344	0.152463
	O585	O	0.073948	0.261830	0.158671
	O586	O	0.031089	0.206322	0.131204
	C587	C	-0.066226	0.208235	0.080777
	C588	C	-0.039792	0.194533	0.091027
	N589	N	-0.066124	0.193971	0.080743
	O590	O	-0.034723	0.183276	0.091857
	O591	O	-0.085418	0.211487	0.074292
	C592	C	0.010000	0.259042	0.115027
	C593	C	-0.037139	0.245834	0.093498
	N594	N	-0.014722	0.260675	0.104438
	O595	O	-0.060530	0.243697	0.082904
	O596	O	0.031127	0.268410	0.123015
	F597	F	0.077688	0.212255	0.110066
	C598	C	0.095623	0.226112	0.149298
	C599	C	0.119148	0.224996	0.164468
	F600	F	0.120827	0.207543	0.136708
	C601	C	0.140588	0.241553	0.207703
	C602	C	0.137029	0.258808	0.234669
	F603	F	0.158063	0.276009	0.277108
	C604	C	0.111492	0.257987	0.217512
	F605	F	0.107480	0.273642	0.242824
	C606	C	0.089789	0.240944	0.173843
	F607	F	0.029033	0.346858	0.190835
	C608	C	0.005956	0.319536	0.150531
	C609	C	0.006980	0.304569	0.148483
	F610	F	0.030470	0.317755	0.187111
	C611	C	-0.016306	0.275896	0.106578
	C612	C	-0.041648	0.262748	0.067072
	F613	F	-0.064716	0.235402	0.026588
	C614	C	-0.043285	0.277804	0.069421
	F615	F	-0.068536	0.264890	0.031576
	C616	C	-0.018915	0.306317	0.110843
	F617	F	0.968318	0.223210	0.161524
	C618	C	0.936303	0.202617	0.126000
	C619	C	0.922218	0.195966	0.130666
	F620	F	0.941457	0.208117	0.168400
	C621	C	0.888620	0.177114	0.097029
	C622	C	0.869649	0.162437	0.055714
	F623	F	0.837481	0.143437	0.022010
	C624	C	0.884045	0.167338	0.049312
	F625	F	0.865668	0.152399	0.009030
	C626	C	0.917602	0.187871	0.084740
	C627	C	0.190590	0.225922	0.232914
	C628	C	0.200736	0.232210	0.225115
	C629	C	0.218618	0.225594	0.217853
	C630	C	0.227734	0.214152	0.220991
	C631	C	0.220570	0.210517	0.233765
	C632	C	0.201277	0.215622	0.238410
	C633	C	0.185827	0.242578	0.220342
	C634	C	0.167228	0.230832	0.230983
	N635	N	0.164891	0.240348	0.222388
	O636	O	0.152048	0.227053	0.234287
	O637	O	0.189883	0.251200	0.215475
	C638	C	0.241367	0.204885	0.203835
	C639	C	0.227368	0.225184	0.200504
	N640	N	0.239413	0.211211	0.190495
	O641	O	0.224530	0.233809	0.194304
	O642	O	0.250454	0.192774	0.198573
	C643	C	0.193013	0.205219	0.243886
	C644	C	0.227160	0.198555	0.239267
	N645	N	0.209077	0.194994	0.243787
	O646	O	0.244675	0.193328	0.240960
	O647	O	0.176043	0.204788	0.247296
	C648	C	-0.047892	0.349555	0.100149
	C649	C	-0.039041	0.359160	0.095707
	C650	C	-0.016852	0.358768	0.095092
	C651	C	-0.004049	0.348485	0.098477
	C652	C	-0.011841	0.339874	0.104942
	C653	C	-0.033652	0.340364	0.105779
	C654	C	-0.057599	0.367880	0.090918
	C655	C	-0.073278	0.351039	0.096861
	N656	N	-0.078451	0.361887	0.090608
	O657	O	-0.087536	0.344460	0.098372
	O658	O	-0.056027	0.378238	0.088118
	C659	C	0.018270	0.350057	0.096052
	C660	C	-0.003036	0.367300	0.090342
	N661	N	0.017364	0.360935	0.090044
	O662	O	-0.006760	0.378217	0.088510
	O663	O	0.034387	0.343708	0.098757
	C664	C	-0.037876	0.329028	0.111494
	C665	C	-0.002759	0.326951	0.107562
	N666	N	-0.018916	0.321017	0.111781
	O667	O	0.013733	0.321177	0.104831
	O668	O	-0.053724	0.326551	0.115100
	C669	C	0.839666	0.177672	0.156131
	C670	C	0.838445	0.182532	0.141391
	C671	C	0.854888	0.179326	0.131305
	C672	C	0.871968	0.171367	0.136234
	C673	C	0.874782	0.168284	0.153945
	C674	C	0.858410	0.171261	0.163546
	C675	C	0.815668	0.188303	0.136120
	C676	C	0.818376	0.180109	0.160933
	N677	N	0.804147	0.186086	0.147868
	O678	O	0.812785	0.177160	0.172384
	O679	O	0.807755	0.193619	0.124371
	C680	C	0.884745	0.167117	0.119688
	C681	C	0.858236	0.182212	0.114056
	N682	N	0.875772	0.173865	0.106559
	O683	O	0.849393	0.190654	0.108511
	O684	O	0.899581	0.159275	0.117035
	C685	C	0.861225	0.162640	0.174833
	C686	C	0.890326	0.159085	0.161277
	N687	N	0.880341	0.155187	0.172324
	O688	O	0.907577	0.155031	0.158448
	O689	O	0.849364	0.160892	0.182954
	F690	F	0.183349	0.141243	0.168390
	C691	C	0.187719	0.151116	0.199382
	C692	C	0.177024	0.133749	0.191245
	F693	F	0.163381	0.107599	0.153303
	C694	C	0.179564	0.143087	0.221718
	C695	C	0.195901	0.170957	0.262692
	F696	F	0.199383	0.180631	0.293035
	C697	C	0.208129	0.188657	0.271906
	F698	F	0.225083	0.215452	0.312236
	C699	C	0.202389	0.178631	0.239081
	F700	F	0.187244	0.170136	0.097992
	C701	C	0.216787	0.179245	0.117021
	C702	C	0.220495	0.166906	0.089827
	F703	F	0.194830	0.146906	0.045502
	C704	C	0.250970	0.175411	0.108813
	C705	C	0.277658	0.198672	0.156294
	F706	F	0.307165	0.209170	0.175545
	C707	C	0.274198	0.211141	0.183652
	F708	F	0.300454	0.233037	0.228885
	C709	C	0.243439	0.200803	0.163936
	F710	F	0.867951	0.329735	0.006071
	C711	C	0.872883	0.350035	0.040889
	C712	C	0.852932	0.356084	0.035260
	F713	F	0.829286	0.341344	-0.004968
	C714	C	0.857055	0.377087	0.070594
	C715	C	0.880612	0.390555	0.110828
	F716	F	0.884731	0.410044	0.145040
	C717	C	0.899960	0.383910	0.115892
	F718	F	0.920742	0.395807	0.153386
	C719	C	0.897977	0.364921	0.082348
	F720	F	0.082994	0.404021	0.167281
	C721	C	0.069638	0.389189	0.128475
	C722	C	0.089060	0.396706	0.129168
	F723	F	0.120782	0.418406	0.168507
	C724	C	0.075728	0.382243	0.089592
	C725	C	0.042785	0.358828	0.048616
	F726	F	0.029933	0.343506	0.009624
	C727	C	0.023253	0.351523	0.048131
	F728	F	-0.008371	0.329684	0.008838
	C729	C	0.036357	0.366921	0.088387
	F730	F	0.908787	0.171991	0.240979
	C731	C	0.893060	0.146191	0.199594
	C732	C	0.890844	0.128105	0.191029
	F733	F	0.902372	0.135866	0.223004
	C734	C	0.876817	0.101802	0.149045
	C735	C	0.861320	0.092695	0.113856
	F736	F	0.846149	0.067023	0.072696
	C737	C	0.862217	0.110324	0.121734
	F738	F	0.847173	0.101198	0.087571
	C739	C	0.879171	0.137580	0.165188
	F740	F	0.817836	0.231616	0.222359
	C741	C	0.787002	0.208282	0.181672
	C742	C	0.762984	0.206103	0.178309
	F743	F	0.771024	0.227166	0.216040
	C744	C	0.730390	0.182169	0.135835
	C745	C	0.722742	0.160258	0.097125
	F746	F	0.691851	0.137184	0.056173
	C747	C	0.746851	0.162099	0.100651
	F748	F	0.738816	0.140560	0.063082
	C749	C	0.779350	0.186072	0.143017
	C750	C	0.116008	0.089484	0.167304
	C751	C	0.138785	0.086379	0.177080
	C752	C	0.131323	0.065732	0.163443
	C753	C	0.100378	0.047680	0.137413
	C754	C	0.077406	0.050191	0.126160
	C755	C	0.085397	0.071808	0.142855
	C756	C	0.168497	0.108182	0.202723
	C757	C	0.130425	0.113369	0.186995
	N758	N	0.161823	0.123760	0.207596
	O759	O	0.118523	0.122502	0.185751
	O760	O	0.193336	0.112402	0.216731
	C761	C	0.097950	0.028940	0.129585
	C762	C	0.149247	0.056856	0.169450
	N763	N	0.128135	0.035830	0.150925
	O764	O	0.175168	0.064174	0.184883
	O765	O	0.075488	0.011350	0.110076
	C766	C	0.057311	0.071215	0.131488
	C767	C	0.043090	0.032876	0.098211
	N768	N	0.033406	0.048036	0.106968
	O769	O	0.026205	0.010306	0.072564
	O770	O	0.054485	0.086924	0.141521
	C771	C	0.311034	0.145007	0.046991
	C772	C	0.302622	0.143270	0.060764
	C773	C	0.283156	0.149499	0.064475
	C774	C	0.271618	0.156535	0.052980
	C775	C	0.279518	0.157757	0.038257
	C776	C	0.299307	0.152231	0.035522
	C777	C	0.319200	0.135869	0.071720
	C778	C	0.334453	0.140048	0.050788
	N779	N	0.337973	0.133994	0.064893
	O780	O	0.348694	0.141146	0.044474
	O781	O	0.317733	0.132104	0.084143
	C782	C	0.255326	0.165592	0.065541
	C783	C	0.273021	0.152596	0.082922
	N784	N	0.256343	0.162455	0.082807
	O785	O	0.278973	0.149293	0.097868
	O786	O	0.244897	0.175397	0.064535
	C787	C	0.306352	0.158468	0.024136
	C788	C	0.271248	0.165676	0.025586
	N789	N	0.288860	0.166541	0.018771
	O790	O	0.253704	0.170765	0.021780
	O791	O	0.323678	0.157921	0.020909
	C792	C	0.771969	0.407063	0.053702
	C793	C	0.782828	0.399385	0.064151
	C794	C	0.802250	0.393106	0.060365
	C795	C	0.811265	0.395471	0.047621
	C796	C	0.799113	0.402241	0.035402
	C797	C	0.779005	0.407450	0.037597
	C798	C	0.773131	0.402902	0.083276
	C799	C	0.755395	0.415861	0.065833
	N800	N	0.756472	0.412781	0.083190
	O801	O	0.744756	0.425487	0.064524
	O802	O	0.779337	0.399842	0.098609
	C803	C	0.834486	0.390304	0.051073
	C804	C	0.819123	0.386005	0.071812
	N805	N	0.837955	0.384194	0.065083
	O806	O	0.817780	0.382357	0.084430
	O807	O	0.848661	0.391328	0.044638
	C808	C	0.771161	0.415791	0.025631
	C809	C	0.806213	0.408522	0.024097
	N810	N	0.788810	0.416681	0.018873
	O811	O	0.823506	0.407933	0.020808
	O812	O	0.753824	0.421096	0.022178
	C813	C	0.132289	0.445089	0.127279
	C814	C	0.158800	0.454566	0.138253
	C815	C	0.173308	0.443127	0.133992
	C816	C	0.162338	0.422911	0.120407
	C817	C	0.136580	0.414352	0.111834
	C818	C	0.121307	0.424984	0.114160
	C819	C	0.166037	0.476275	0.152107
	C820	C	0.120836	0.460000	0.132518
	N821	N	0.142057	0.478286	0.147155
	O822	O	0.098507	0.457825	0.125954
	O823	O	0.187382	0.490145	0.165306
	C824	C	0.183476	0.415445	0.119561
	C825	C	0.200406	0.448676	0.140758
	N826	N	0.206206	0.432122	0.132903
	O827	O	0.214765	0.463600	0.150016
	O828	O	0.182342	0.398750	0.109236
	C829	C	0.094592	0.412351	0.102883
	C830	C	0.119790	0.394402	0.099099
	N831	N	0.094404	0.393925	0.093556
	O832	O	0.125902	0.381617	0.095439
	O833	O	0.076446	0.416619	0.102230
	C834	C	0.922445	0.056816	0.132014
	C835	C	0.911112	0.032441	0.108325
	C836	C	0.881187	0.015987	0.086345
	C837	C	0.862719	0.023816	0.087695
	C838	C	0.874312	0.048504	0.111849
	C839	C	0.904190	0.064901	0.134070
	C840	C	0.932914	0.027056	0.105555
	C841	C	0.953398	0.069241	0.149085
	N842	N	0.957184	0.049562	0.129387
	O843	O	0.972228	0.091306	0.174412
	O844	O	0.930649	0.007542	0.085898
	C845	C	0.832023	0.002116	0.060804
	C846	C	0.862485	-0.011388	0.057266
	N847	N	0.833689	-0.018248	0.044181
	O848	O	0.869618	-0.025406	0.046672
	O849	O	0.809986	0.001312	0.054149
	C850	C	0.909752	0.088813	0.154249
	C851	C	0.859625	0.061644	0.117333
	N852	N	0.882493	0.086004	0.143649
	O853	O	0.834101	0.054167	0.103198
	O854	O	0.932433	0.107282	0.175444
	C855	C	0.672885	0.192644	0.132946
	C856	C	0.662423	0.172918	0.120460
	C857	C	0.636568	0.164279	0.111690
	C858	C	0.621536	0.175144	0.114521
	C859	C	0.632850	0.195554	0.128329
	C860	C	0.658618	0.204303	0.137686
	C861	C	0.683120	0.165040	0.118716
	C862	C	0.699974	0.198171	0.139692
	N863	N	0.705733	0.181585	0.131782
	O864	O	0.714331	0.213077	0.148922
	O865	O	0.681799	0.148192	0.108046
	C866	C	0.595023	0.162711	0.103679
	C867	C	0.619790	0.144341	0.098983
	N868	N	0.594652	0.144111	0.093971
	O869	O	0.625726	0.131373	0.094928
	O870	O	0.577142	0.167229	0.103574
	C871	C	0.666160	0.226282	0.152157
	C872	C	0.621380	0.210445	0.133514
	N873	N	0.642477	0.228599	0.147862
	O874	O	0.599141	0.208365	0.127154
	O875	O	0.687488	0.240105	0.165277
	F876	F	-0.056080	0.043889	0.077426
	C877	C	-0.031148	0.046019	0.096909
	C878	C	-0.013177	0.044798	0.089941
	F879	F	-0.021069	0.041281	0.063598
	C880	C	0.013082	0.047325	0.110524
	C881	C	0.019906	0.049870	0.136468
	F882	F	0.044265	0.051455	0.155537
	C883	C	0.002091	0.051240	0.143609
	F884	F	0.010080	0.055030	0.170306
	C885	C	-0.023882	0.049047	0.123515
	F886	F	0.127065	0.493951	0.092947
	C887	C	0.130096	0.500226	0.120144
	C888	C	0.130002	0.484342	0.116130
	F889	F	0.123783	0.461470	0.082069
	C890	C	0.137200	0.492478	0.147980
	C891	C	0.141952	0.515739	0.181699
	F892	F	0.149415	0.524293	0.213100
	C893	C	0.139267	0.530252	0.183089
	F894	F	0.142430	0.551689	0.214209
	C895	C	0.133886	0.522978	0.152787
	F896	F	0.384627	0.159861	0.144889
	C897	C	0.380569	0.140382	0.110741
	C898	C	0.400026	0.133849	0.115983
	F899	F	0.420715	0.145723	0.153455
	C900	C	0.398228	0.114978	0.082620
	C901	C	0.373277	0.100149	0.041195
	F902	F	0.368463	0.079900	0.006487
	C903	C	0.353190	0.106061	0.035367
	F904	F	0.329609	0.091312	-0.004876
	C905	C	0.357144	0.126966	0.070547
	F906	F	0.265342	0.142065	-0.056142
	C907	C	0.285339	0.169329	-0.015370
	C908	C	0.295801	0.185292	-0.009697
	F909	F	0.285616	0.173251	-0.045176
	C910	C	0.317305	0.213885	0.033201
	C911	C	0.326171	0.226006	0.069184
	F912	F	0.345454	0.253279	0.109858
	C913	C	0.315855	0.210106	0.063534
	F914	F	0.325306	0.222207	0.098791
	C915	C	0.296179	0.181634	0.021607
	F916	F	0.845764	0.503599	0.110528
	C917	C	0.826324	0.476321	0.069714
	C918	C	0.815994	0.460341	0.063926
	F919	F	0.825464	0.472362	0.099130
	C920	C	0.796246	0.431868	0.021899
	C921	C	0.785487	0.419655	-0.014971
	F922	F	0.765329	0.392390	-0.055874
	C923	C	0.795991	0.435702	-0.009143
	F924	F	0.785846	0.423748	-0.044537
	C925	C	0.817529	0.464291	0.033835
	F926	F	0.694889	0.397099	0.045747
	C927	C	0.720552	0.417132	0.090093
	C928	C	0.716816	0.429430	0.117248
	F929	F	0.687251	0.420252	0.098162
	C930	C	0.743460	0.451012	0.164178
	C931	C	0.774239	0.461460	0.183964
	F932	F	0.800473	0.483299	0.229177
	C933	C	0.777727	0.449041	0.156644
	F934	F	0.807235	0.459534	0.175906
	C935	C	0.751055	0.425712	0.109142
	F936	F	0.271544	0.477639	0.217216
	C937	C	0.263482	0.456611	0.179457
	C938	C	0.287495	0.458773	0.182803
	F939	F	0.318356	0.482052	0.223521
	C940	C	0.279804	0.436598	0.144093
	C941	C	0.247278	0.412696	0.101697
	F942	F	0.239218	0.391142	0.064108
	C943	C	0.223188	0.410870	0.098208
	F944	F	0.192294	0.387796	0.057280
	C945	C	0.230872	0.432723	0.136970
	F946	F	0.649953	0.274683	0.213947
	C947	C	0.642477	0.266121	0.182533
	C948	C	0.639647	0.280561	0.183794
	F949	F	0.642816	0.302001	0.214920
	C950	C	0.634147	0.273231	0.153387
	C951	C	0.630208	0.250404	0.120611
	F952	F	0.627156	0.244106	0.093382
	C953	C	0.630232	0.234580	0.116711
	F954	F	0.623924	0.211667	0.082575
	C955	C	0.637591	0.242793	0.148699
	F956	F	0.530101	0.093850	0.010194
	C957	C	0.543079	0.109080	0.049175
	C958	C	0.523603	0.101850	0.048813
	F959	F	0.491944	0.080093	0.009610
	C960	C	0.536804	0.117218	0.089087
	C961	C	0.570097	0.139452	0.129109
	F962	F	0.583551	0.154202	0.167894
	C963	C	0.589468	0.146884	0.129673
	F964	F	0.621225	0.168494	0.168909
	C965	C	0.576040	0.132453	0.090085
	C966	C	0.466802	0.090654	0.106483
	C967	C	0.488038	0.089575	0.104586
	C968	C	0.496289	0.098643	0.098947
	C969	C	0.483586	0.109029	0.095752
	C970	C	0.461033	0.109041	0.095680
	C971	C	0.452643	0.099929	0.101004
	C972	C	0.497303	0.076841	0.107553
	C973	C	0.462212	0.078955	0.111539
	N974	N	0.481090	0.070865	0.111684
	O975	O	0.446196	0.076316	0.114845
	O976	O	0.513936	0.071199	0.105071
	C977	C	0.497491	0.117657	0.091175
	C978	C	0.518595	0.100203	0.096499
	N979	N	0.517858	0.111262	0.090814
	O980	O	0.534575	0.093711	0.098946
	O981	O	0.493865	0.128676	0.089531
	C982	C	0.426984	0.101118	0.097186
	C983	C	0.442822	0.118125	0.091549
	N984	N	0.421874	0.112033	0.091051
	O985	O	0.444670	0.128771	0.089281
	O986	O	0.412516	0.094311	0.098285
	C987	C	0.380705	0.265330	0.085045
	C988	C	0.362578	0.273459	0.087288
	C989	C	0.373933	0.297930	0.110826
	C990	C	0.403653	0.314179	0.132638
	C991	C	0.422450	0.306583	0.131937
	C992	C	0.410896	0.282016	0.107700
	C993	C	0.331735	0.251629	0.060009
	C994	C	0.362177	0.238107	0.056416
	N995	N	0.333400	0.231267	0.043387
	O996	O	0.369399	0.224166	0.046050
	O997	O	0.309630	0.250768	0.053174
	C998	C	0.409381	0.338259	0.153280
	C999	C	0.359222	0.311048	0.116274
	N1000	N	0.382100	0.335426	0.142637
	O1001	O	0.333680	0.303547	0.102088
	O1002	O	0.432165	0.356845	0.174775
	C1003	C	0.432735	0.276674	0.104977
	C1004	C	0.453246	0.318911	0.148663
	N1005	N	0.457036	0.299236	0.128932
	O1006	O	0.471991	0.340935	0.173839
	O1007	O	0.430473	0.257154	0.085274
	C1008	C	0.690441	0.475886	0.232863
	C1009	C	0.700583	0.482202	0.225095
	C1010	C	0.718526	0.475656	0.217925
	C1011	C	0.727719	0.464265	0.221142
	C1012	C	0.720547	0.460595	0.233874
	C1013	C	0.701185	0.465622	0.238411
	C1014	C	0.685602	0.492516	0.220241
	C1015	C	0.667022	0.480731	0.230851
	N1016	N	0.664646	0.490236	0.222234
	O1017	O	0.651822	0.476907	0.234098
	O1018	O	0.689619	0.501130	0.215350
	C1019	C	0.741446	0.455094	0.204119
	C1020	C	0.727281	0.475282	0.200613
	N1021	N	0.739418	0.461384	0.190708
	O1022	O	0.724382	0.483881	0.194364
	O1023	O	0.750666	0.443083	0.199017
	C1024	C	0.692925	0.455190	0.243847
	C1025	C	0.727198	0.448670	0.239440
	N1026	N	0.709059	0.445028	0.243841
	O1027	O	0.744793	0.443526	0.241258
	O1028	O	0.675899	0.454690	0.247153
	C1029	C	0.372191	0.421661	0.136775
	C1030	C	0.354591	0.429127	0.131081
	C1031	C	0.338252	0.432400	0.141325
	C1032	C	0.339984	0.428033	0.156883
	C1033	C	0.357814	0.420660	0.162681
	C1034	C	0.374479	0.418009	0.153580
	C1035	C	0.358282	0.432406	0.114452
	C1036	C	0.384693	0.417191	0.119822
	N1037	N	0.375757	0.424019	0.106833
	O1038	O	0.399332	0.409167	0.116826
	O1039	O	0.349669	0.441088	0.109332
	C1040	C	0.318519	0.430262	0.161383
	C1041	C	0.316026	0.438753	0.137040
	N1042	N	0.304536	0.436535	0.148812
	O1043	O	0.308441	0.444444	0.125908
	O1044	O	0.312665	0.426993	0.172329
	C1045	C	0.389995	0.408754	0.160790
	C1046	C	0.360971	0.412324	0.174458
	N1047	N	0.380039	0.404830	0.171829
	O1048	O	0.349331	0.410749	0.182916
	O1049	O	0.407222	0.404693	0.157903
	C1050	C	0.577297	0.299898	0.125521
	C1051	C	0.585396	0.321688	0.142640
	C1052	C	0.616204	0.339652	0.167761
	C1053	C	0.638747	0.336215	0.176740
	C1054	C	0.631499	0.315893	0.163840
	C1055	C	0.600678	0.298045	0.138280
	C1056	C	0.557303	0.321081	0.131270
	C1057	C	0.543123	0.282764	0.098067
	N1058	N	0.533446	0.297932	0.106842
	O1059	O	0.526313	0.260280	0.072684
	O1060	O	0.554441	0.336762	0.141242
	C1061	C	0.668575	0.358207	0.202800
	C1062	C	0.630432	0.363307	0.186905
	N1063	N	0.661844	0.373730	0.207554
	O1064	O	0.618408	0.372282	0.185311
	O1065	O	0.693515	0.362571	0.217120
	C1066	C	0.598181	0.279160	0.130127
	C1067	C	0.649465	0.307076	0.169974
	N1068	N	0.628383	0.286082	0.151522
	O1069	O	0.675395	0.314409	0.185433
	O1070	O	0.575676	0.261474	0.110423
	F1071	F	0.434961	-0.014915	0.025992
	C1072	C	0.458031	0.012433	0.066573
	C1073	C	0.456536	0.027573	0.069083
	F1074	F	0.431322	0.014752	0.031336
	C1075	C	0.480982	0.056082	0.110582
	C1076	C	0.505828	0.069206	0.150167
	F1077	F	0.528879	0.096535	0.190571
	C1078	C	0.506701	0.054156	0.147961
	F1079	F	0.530102	0.067254	0.186506
	C1080	C	0.483365	0.025484	0.105968
	F1081	F	0.345811	0.316604	0.071884
	C1082	C	0.360902	0.342229	0.113042
	C1083	C	0.361880	0.359930	0.121075
	F1084	F	0.346860	0.350872	0.086987
	C1085	C	0.378848	0.387170	0.164576
	C1086	C	0.392791	0.395723	0.198931
	F1087	F	0.408416	0.421472	0.240301
	C1088	C	0.390506	0.377567	0.190214
	F1089	F	0.402019	0.385250	0.222103
	C1090	C	0.376461	0.351284	0.148181
	F1091	F	0.478987	0.291189	0.063486
	C1092	C	0.486859	0.294687	0.089801
	C1093	C	0.468843	0.295858	0.096692
	F1094	F	0.443916	0.293727	0.077200
	C1095	C	0.476047	0.298815	0.123199
	C1096	C	0.502101	0.301122	0.143453
	F1097	F	0.509960	0.304749	0.169927
	C1098	C	0.519991	0.299843	0.136446
	F1099	F	0.544318	0.301388	0.155465
	C1100	C	0.513133	0.297237	0.110420
	F1101	F	0.657731	0.525876	0.276828
	C1102	C	0.636734	0.508662	0.234382
	C1103	C	0.611109	0.507732	0.217083
	F1104	F	0.607088	0.523411	0.242369
	C1105	C	0.589352	0.490581	0.173321
	C1106	C	0.595137	0.475662	0.148737
	F1107	F	0.577208	0.461757	0.109464
	C1108	C	0.618786	0.474690	0.164096
	F1109	F	0.620514	0.457245	0.136405
	C1110	C	0.640273	0.491354	0.207425
	F1111	F	0.699034	0.430535	0.292780
	C1112	C	0.695816	0.420935	0.262645
	C1113	C	0.707980	0.438642	0.271848
	F1114	F	0.724747	0.465406	0.312073
	C1115	C	0.702407	0.428667	0.239149
	C1116	C	0.687877	0.401186	0.199544
	F1117	F	0.683807	0.391395	0.168783
	C1118	C	0.677248	0.383820	0.191432
	F1119	F	0.663826	0.357727	0.153649
	C1120	C	0.679599	0.393090	0.221740
	F1121	F	0.337282	0.393515	0.022203
	C1122	C	0.369440	0.412510	0.055825
	C1123	C	0.383741	0.417245	0.049187
	F1124	F	0.365272	0.402242	0.008836
	C1125	C	0.417297	0.437697	0.084469
	C1126	C	0.436104	0.452467	0.125768
	F1127	F	0.468109	0.473056	0.161211
	C1128	C	0.422100	0.445989	0.130677
	F1129	F	0.441408	0.458217	0.168493
	C1130	C	0.388510	0.427200	0.097167
	C1131	C	0.508326	0.471038	0.116715
	C1132	C	0.520392	0.486406	0.122165
	C1133	C	0.502644	0.492167	0.111050
	C1134	C	0.474197	0.483950	0.097488
	C1135	C	0.461773	0.468022	0.091275
	C1136	C	0.478421	0.461061	0.099805
	C1137	C	0.554047	0.496398	0.145054
	C1138	C	0.532656	0.469053	0.132820
	N1139	N	0.560387	0.485940	0.151874
	O1140	O	0.530711	0.456073	0.130912
	O1141	O	0.573364	0.511190	0.157647
	C1142	C	0.462385	0.495296	0.092614
	C1143	C	0.509510	0.508456	0.114092
	N1144	N	0.484851	0.510167	0.103636
	O1145	O	0.530750	0.517949	0.122332
	O1146	O	0.438997	0.493167	0.082012
	C1147	C	0.459717	0.444119	0.090369
	C1148	C	0.433382	0.457910	0.080255
	N1149	N	0.433470	0.443665	0.080258
	O1150	O	0.414283	0.461268	0.073948
	O1151	O	0.464730	0.432822	0.091128
	C1152	C	0.047624	0.150297	0.274488
	C1153	C	0.039364	0.141329	0.280064
	C1154	C	0.017168	0.141719	0.280665
	C1155	C	0.003779	0.151403	0.276195
	C1156	C	0.012255	0.160690	0.270958
	C1157	C	0.033746	0.159863	0.269528
	C1158	C	0.057612	0.132283	0.284268
	C1159	C	0.073173	0.148990	0.278091
	N1160	N	0.078373	0.138168	0.284390
	O1161	O	0.087491	0.155638	0.276701
	O1162	O	0.055919	0.121806	0.286848
	C1163	C	-0.018243	0.150144	0.279170
	C1164	C	0.002988	0.132829	0.284754
	N1165	N	-0.017400	0.139205	0.285072
	O1166	O	0.006465	0.121671	0.286138
	O1167	O	-0.034135	0.156722	0.276865
	C1168	C	0.037866	0.171074	0.263594
	C1169	C	0.002768	0.173197	0.267567
	N1170	N	0.018861	0.179038	0.263203
	O1171	O	-0.013918	0.178794	0.269943
	O1172	O	0.053687	0.173508	0.259927
	F1173	F	0.079282	0.104369	0.221718
	C1174	C	0.100084	0.116269	0.259214
	C1175	C	0.119387	0.109581	0.264217
	F1176	F	0.115306	0.090136	0.230033
	C1177	C	0.142889	0.122981	0.304383
	C1178	C	0.146955	0.143923	0.339681
	F1179	F	0.170556	0.158605	0.379856
	C1180	C	0.126959	0.149936	0.334037
	F1181	F	0.131912	0.170246	0.368876
	C1182	C	0.101954	0.135143	0.292659
	F1183	F	0.064715	0.264651	0.348446
	C1184	C	0.041659	0.237302	0.307932
	C1185	C	0.043290	0.222226	0.305534
	F1186	F	0.068441	0.235134	0.343406
	C1187	C	0.018876	0.193719	0.264106
	C1188	C	-0.005951	0.180513	0.224422
	F1189	F	-0.029046	0.153192	0.184107
	C1190	C	-0.006888	0.195495	0.226491
	F1191	F	-0.030390	0.182335	0.187897
	C1192	C	0.016353	0.224171	0.268437
	F1193	F	1.008692	0.170367	0.366348
	C1194	C	0.977001	0.148688	0.327233
	C1195	C	0.957623	0.141399	0.326914
	F1196	F	0.970671	0.156643	0.365932
	C1197	C	0.924624	0.118100	0.286085
	C1198	C	0.911105	0.103731	0.246512
	F1199	F	0.879326	0.082171	0.207342
	C1200	C	0.930396	0.111177	0.247012
	F1201	F	0.916821	0.096526	0.208257
	C1202	C	0.963719	0.133321	0.286928
	C1203	C	0.188440	0.104332	0.326902
	C1204	C	0.197545	0.106805	0.314326
	C1205	C	0.216949	0.100515	0.310499
	C1206	C	0.227737	0.092746	0.320789
	C1207	C	0.220577	0.092208	0.336666
	C1208	C	0.200161	0.097096	0.338345
	C1209	C	0.180840	0.114092	0.303190
	C1210	C	0.165271	0.109556	0.323552
	N1211	N	0.161967	0.115849	0.309843
	O1212	O	0.151016	0.108440	0.329839
	O1213	O	0.182317	0.117892	0.290817
	C1214	C	0.244462	0.084104	0.308879
	C1215	C	0.226764	0.097141	0.291578
	N1216	N	0.243464	0.087293	0.291689
	O1217	O	0.220589	0.100262	0.276338
	O1218	O	0.255148	0.074504	0.310214
	C1219	C	0.193437	0.091170	0.350267
	C1220	C	0.228416	0.083838	0.348580
	N1221	N	0.210842	0.083002	0.355455
	O1222	O	0.245700	0.078474	0.351913
	O1223	O	0.176384	0.091991	0.353979
	C1224	C	-0.020764	0.263104	0.251971
	C1225	C	-0.008275	0.279118	0.258635
	C1226	C	0.021652	0.289112	0.275592
	C1227	C	0.037837	0.281534	0.282946
	C1228	C	0.025844	0.266168	0.277812
	C1229	C	-0.002835	0.257639	0.263652
	C1230	C	-0.032745	0.280858	0.242051
	C1231	C	-0.054331	0.253270	0.229338
	N1232	N	-0.060583	0.263819	0.222681
	O1233	O	-0.073674	0.238488	0.216738
	O1234	O	-0.030806	0.293807	0.243899
	C1235	C	0.066465	0.291949	0.294545
	C1236	C	0.040179	0.305808	0.284559
	N1237	N	0.066399	0.306226	0.294605
	O1238	O	0.035083	0.316999	0.283591
	O1239	O	0.085703	0.288754	0.301162
	C1240	C	-0.009800	0.241212	0.260347
	C1241	C	0.037327	0.254386	0.281838
	N1242	N	0.014822	0.239454	0.270702
	O1243	O	0.060536	0.256285	0.291985
	O1244	O	-0.031065	0.231674	0.252034
	C1245	C	0.827053	0.057252	0.241722
	C1246	C	0.838086	0.077500	0.255391
	C1247	C	0.864096	0.086277	0.264481
	C1248	C	0.878812	0.075112	0.260990
	C1249	C	0.868033	0.055227	0.248362
	C1250	C	0.841546	0.045801	0.237462
	C1251	C	0.817056	0.085070	0.256427
	C1252	C	0.799912	0.051686	0.234877
	N1253	N	0.794220	0.068329	0.242904
	O1254	O	0.785441	0.036686	0.225433
	O1255	O	0.818329	0.101873	0.266990
	C1256	C	0.905804	0.088005	0.272848
	C1257	C	0.880650	0.105991	0.276708
	N1258	N	0.906019	0.106455	0.282221
	O1259	O	0.874413	0.118651	0.280106
	O1260	O	0.924094	0.083874	0.273811
	C1261	C	0.834273	0.024092	0.223606
	C1262	C	0.879339	0.040185	0.242860
	N1263	N	0.858155	0.021974	0.228365
	O1264	O	0.901541	0.042218	0.249146
	O1265	O	0.812958	0.010289	0.210525
	F1266	F	0.174205	0.027314	0.275294
	C1267	C	0.183784	0.039404	0.310599
	C1268	C	0.173369	0.023474	0.304863
	F1269	F	0.153984	-0.003805	0.264125
	C1270	C	0.182270	0.035578	0.340848
	C1271	C	0.203837	0.064172	0.383791
	F1272	F	0.214051	0.076191	0.419265
	C1273	C	0.214298	0.080157	0.389502
	F1274	F	0.234468	0.107428	0.430367
	C1275	C	0.203482	0.067877	0.352555
	F1276	F	0.192714	0.040599	0.199011
	C1277	C	0.222218	0.051114	0.218265
	C1278	C	0.225691	0.038638	0.190915
	F1279	F	0.199455	0.016791	0.145701
	C1280	C	0.256464	0.049056	0.210684
	C1281	C	0.283108	0.070629	0.257612
	F1282	F	0.312671	0.079798	0.276692
	C1283	C	0.279371	0.082900	0.284757
	F1284	F	0.305047	0.102970	0.329122
	C1285	C	0.248889	0.074389	0.265748
	F1286	F	0.892693	0.226387	0.132207
	C1287	C	0.888667	0.242041	0.157498
	C1288	C	0.863148	0.241235	0.140335
	F1289	F	0.842070	0.223967	0.097841
	C1290	C	0.859623	0.258540	0.167319
	C1291	C	0.881143	0.275206	0.210652
	F1292	F	0.879470	0.292685	0.238404
	C1293	C	0.904763	0.274195	0.225949
	F1294	F	0.922735	0.288108	0.265238
	C1295	C	0.910483	0.259225	0.201291
	F1296	F	0.134633	0.347726	0.366314
	C1297	C	0.116290	0.332774	0.326026
	C1298	C	0.130719	0.337717	0.319692
	F1299	F	0.162896	0.356681	0.353390
	C1300	C	0.111779	0.323093	0.278429
	C1301	C	0.078174	0.304290	0.244807
	F1302	F	0.058990	0.292165	0.207103
	C1303	C	0.064026	0.297691	0.249481
	F1304	F	0.032005	0.277104	0.213936
	C1305	C	0.082708	0.312336	0.290648
	F1306	F	0.876397	0.038677	0.293333
	C1307	C	0.870026	0.015749	0.259119
	C1308	C	0.869990	-0.000135	0.255100
	F1309	F	0.872950	0.006073	0.282204
	C1310	C	0.866068	-0.022944	0.222312
	C1311	C	0.860672	-0.030187	0.192032
	F1312	F	0.857385	-0.051677	0.160773
	C1313	C	0.858083	-0.015595	0.193570
	F1314	F	0.850623	-0.024111	0.162204
	C1315	C	0.862919	0.007698	0.227386
	F1316	F	0.807953	0.112666	0.318375
	C1317	C	0.777080	0.089572	0.277376
	C1318	C	0.752922	0.087665	0.273752
	F1319	F	0.760878	0.109202	0.311245
	C1320	C	0.720427	0.063707	0.231311
	C1321	C	0.712838	0.041545	0.192701
	F1322	F	0.682006	0.018227	0.151937
	C1323	C	0.736927	0.043746	0.196199
	F1324	F	0.728941	0.022765	0.158498
	C1325	C	0.769504	0.067698	0.238725
	C1326	C	0.118793	-0.015914	0.288836
	C1327	C	0.137245	-0.023758	0.287450
	C1328	C	0.125860	-0.048246	0.263866
	C1329	C	0.095848	-0.064771	0.241285
	C1330	C	0.077605	-0.056672	0.243365
	C1331	C	0.088922	-0.032315	0.266999
	C1332	C	0.167883	-0.002118	0.314181
	C1333	C	0.137399	0.011371	0.317648
	N1334	N	0.166159	0.018189	0.330641
	O1335	O	0.130224	0.025350	0.328115
	O1336	O	0.189927	-0.001309	0.320856
	C1337	C	0.090238	-0.088735	0.220965
	C1338	C	0.140278	-0.061647	0.257654
	N1339	N	0.117397	-0.086025	0.231290
	O1340	O	0.165643	-0.054328	0.271356
	O1341	O	0.067599	-0.107168	0.199872
	C1342	C	0.067132	-0.026915	0.269783
	C1343	C	0.046632	-0.069100	0.226256
	N1344	N	0.042840	-0.049425	0.245927
	O1345	O	0.027799	-0.091162	0.200937
	O1346	O	0.069424	-0.007387	0.289473
	C1347	C	0.309527	0.024057	0.141873
	C1348	C	0.300016	0.018393	0.150773
	C1349	C	0.282057	0.024925	0.157904
	C1350	C	0.272133	0.035663	0.153542
	C1351	C	0.280164	0.040076	0.142139
	C1352	C	0.299525	0.035047	0.137608
	C1353	C	0.314527	0.007634	0.154853
	C1354	C	0.333098	0.019357	0.144171
	N1355	N	0.335397	0.009793	0.152686
	O1356	O	0.348413	0.023283	0.141124
	O1357	O	0.310278	-0.001171	0.159384
	C1358	C	0.258584	0.045010	0.170836
	C1359	C	0.272777	0.024875	0.174450
	N1360	N	0.260510	0.038669	0.184151
	O1361	O	0.275440	0.016098	0.180378
	O1362	O	0.249527	0.057142	0.176131
	C1363	C	0.307228	0.044948	0.131201
	C1364	C	0.272953	0.051459	0.135610
	N1365	N	0.290945	0.054974	0.130960
	O1366	O	0.255113	0.056349	0.133365
	O1367	O	0.324017	0.045225	0.127479
	C1368	C	0.772239	0.285706	0.153691
	C1369	C	0.781464	0.274357	0.156991
	C1370	C	0.799369	0.267766	0.149764
	C1371	C	0.809446	0.274003	0.141864
	C1372	C	0.798677	0.284233	0.136248
	C1373	C	0.779348	0.289297	0.140836
	C1374	C	0.772787	0.274832	0.174451
	C1375	C	0.758561	0.294940	0.170784
	N1376	N	0.760664	0.288743	0.184345
	O1377	O	0.749340	0.306943	0.175851
	O1378	O	0.775730	0.266296	0.180808
	C1379	C	0.832840	0.269129	0.143836
	C1380	C	0.814369	0.257478	0.154669
	N1381	N	0.835267	0.259687	0.152561
	O1382	O	0.810404	0.248928	0.159672
	O1383	O	0.847976	0.272879	0.140464
	C1384	C	0.772663	0.301178	0.135189
	C1385	C	0.806883	0.294598	0.130695
	N1386	N	0.790756	0.304766	0.130702
	O1387	O	0.823875	0.295059	0.127328
	O1388	O	0.755066	0.306321	0.133360
	C1389	C	0.125808	0.332207	0.221939
	C1390	C	0.142428	0.329503	0.212761
	C1391	C	0.160694	0.322584	0.219321
	C1392	C	0.161899	0.317681	0.233999
	C1393	C	0.145964	0.321375	0.244910
	C1394	C	0.128653	0.329119	0.239652
	C1395	C	0.139084	0.337639	0.200648
	C1396	C	0.110088	0.341251	0.214365
	N1397	N	0.119895	0.345018	0.203061
	O1398	O	0.092828	0.345283	0.217191
	O1399	O	0.150673	0.339150	0.192090
	C1400	C	0.184374	0.311585	0.238712
	C1401	C	0.181717	0.319886	0.214060
	N1402	N	0.195747	0.313670	0.226725
	O1403	O	0.187273	0.322829	0.202582
	O1404	O	0.192170	0.306124	0.250222
	C1405	C	0.115786	0.333255	0.256042
	C1406	C	0.142184	0.318039	0.261430
	N1407	N	0.124665	0.326390	0.268974
	O1408	O	0.150765	0.309335	0.266515
	O1409	O	0.100965	0.341111	0.258737
	C1410	C	0.922732	-0.049878	0.249515
	C1411	C	0.914888	-0.071308	0.233280
	C1412	C	0.884058	-0.089296	0.208094
	C1413	C	0.861251	-0.086234	0.198230
	C1414	C	0.868878	-0.065317	0.212486
	C1415	C	0.899731	-0.047407	0.238178
	C1416	C	0.942718	-0.071019	0.243892
	C1417	C	0.956988	-0.032652	0.277238
	N1418	N	0.966598	-0.047877	0.268325
	O1419	O	0.973875	-0.010107	0.302820
	O1420	O	0.945392	-0.086885	0.233462
	C1421	C	0.831431	-0.108205	0.172208
	C1422	C	0.869555	-0.113323	0.188074
	N1423	N	0.838067	-0.123848	0.167179
	O1424	O	0.881457	-0.122464	0.189290
	O1425	O	0.806548	-0.112487	0.158067
	C1426	C	0.902063	-0.028799	0.245728
	C1427	C	0.850715	-0.056804	0.205685
	N1428	N	0.871810	-0.035813	0.224142
	O1429	O	0.824642	-0.064332	0.189792
	O1430	O	0.924520	-0.011196	0.265251
	C1431	C	0.659795	0.071770	0.217688
	C1432	C	0.661660	0.067560	0.233497
	C1433	C	0.645186	0.070710	0.243522
	C1434	C	0.627411	0.077992	0.237517
	C1435	C	0.625358	0.081843	0.221045
	C1436	C	0.641434	0.078595	0.210969
	C1437	C	0.684160	0.061498	0.238269
	C1438	C	0.681311	0.069588	0.213276
	N1439	N	0.695600	0.063654	0.226403
	O1440	O	0.686986	0.072656	0.202004
	O1441	O	0.691972	0.056056	0.249811
	C1442	C	0.614960	0.082534	0.254563
	C1443	C	0.641507	0.067460	0.260190
	N1444	N	0.623957	0.075781	0.267680
	O1445	O	0.650171	0.058832	0.265406
	O1446	O	0.600326	0.090562	0.257545
	C1447	C	0.638529	0.087161	0.199583
	C1448	C	0.609277	0.090522	0.212862
	N1449	N	0.619286	0.094491	0.201906
	O1450	O	0.591665	0.094198	0.215084
	O1451	O	0.650435	0.088982	0.191563
	F1452	F	-0.044187	-0.051221	0.219867
	C1453	C	-0.019880	-0.049702	0.238849
	C1454	C	-0.002108	-0.051146	0.231620
	F1455	F	-0.010002	-0.054824	0.205077
	C1456	C	0.023893	-0.048908	0.251783
	C1457	C	0.031150	-0.045877	0.278390
	F1458	F	0.056113	-0.043699	0.297947
	C1459	C	0.013120	-0.044723	0.285253
	F1460	F	0.021063	-0.041115	0.311715
	C1461	C	-0.013086	-0.047180	0.264756
	F1462	F	0.097571	0.364097	0.151978
	C1463	C	0.109206	0.371934	0.184059
	C1464	C	0.106947	0.353867	0.175544
	F1465	F	0.091319	0.328080	0.134231
	C1466	C	0.120959	0.362557	0.210060
	C1467	C	0.137899	0.389826	0.253484
	F1468	F	0.153032	0.399034	0.287749
	C1469	C	0.138697	0.407391	0.261235
	F1470	F	0.153837	0.433069	0.302358
	C1471	C	0.123133	0.398216	0.225962
	F1472	F	0.379470	0.042744	0.238488
	C1473	C	0.381143	0.025242	0.210750
	C1474	C	0.404822	0.024305	0.226156
	F1475	F	0.422751	0.038225	0.265444
	C1476	C	0.410614	0.009384	0.201585
	C1477	C	0.388893	-0.007745	0.157843
	F1478	F	0.392910	-0.023438	0.132560
	C1479	C	0.363334	-0.008611	0.140585
	F1480	F	0.342314	-0.025862	0.098109
	C1481	C	0.359740	0.008649	0.167487
	F1482	F	0.275212	0.034445	0.062549
	C1483	C	0.291810	0.061188	0.102637
	C1484	C	0.304013	0.078872	0.111813
	F1485	F	0.300739	0.069227	0.081612
	C1486	C	0.320069	0.106691	0.152574
	C1487	C	0.322326	0.115972	0.182832
	F1488	F	0.335563	0.142023	0.220446
	C1489	C	0.311805	0.098666	0.174860
	F1490	F	0.315841	0.108495	0.205630
	C1491	C	0.297428	0.071217	0.135402
	F1492	F	0.836112	0.392112	0.221047
	C1493	C	0.822565	0.365990	0.183153
	C1494	C	0.811987	0.348625	0.175058
	F1495	F	0.816100	0.358416	0.205844
	C1496	C	0.797430	0.321140	0.135421
	C1497	C	0.791848	0.311179	0.102729
	F1498	F	0.775024	0.284409	0.062457
	C1499	C	0.804095	0.328915	0.112013
	F1500	F	0.800777	0.319310	0.081815
	C1501	C	0.820275	0.356750	0.152904
	F1502	F	0.699656	0.266916	0.146017
	C1503	C	0.725919	0.288806	0.191245
	C1504	C	0.722482	0.301341	0.218646
	F1505	F	0.692988	0.290844	0.199428
	C1506	C	0.749178	0.324646	0.266139
	C1507	C	0.779657	0.333175	0.285127
	F1508	F	0.805334	0.353195	0.329462
	C1509	C	0.783358	0.320852	0.257931
	F1510	F	0.812892	0.329927	0.276940
	C1511	C	0.756678	0.299200	0.210965
	F1512	F	0.261112	0.359071	0.311312
	C1513	C	0.252973	0.337473	0.273662
	C1514	C	0.276985	0.339272	0.276994
	F1515	F	0.307896	0.362334	0.317867
	C1516	C	0.269225	0.317328	0.238186
	C1517	C	0.236602	0.293433	0.195783
	F1518	F	0.228452	0.272335	0.157960
	C1519	C	0.212657	0.291346	0.192572
	F1520	F	0.181806	0.268025	0.151973
	C1521	C	0.220436	0.313564	0.231352
	F1522	F	0.652219	0.148326	0.286709
	C1523	C	0.637455	0.139419	0.252824
	C1524	C	0.638388	0.157159	0.260961
	F1525	F	0.653428	0.182743	0.302132
	C1526	C	0.623101	0.148271	0.226043
	C1527	C	0.609207	0.122066	0.184063
	F1528	F	0.597963	0.114551	0.152418
	C1529	C	0.606815	0.103819	0.175156
	F1530	F	0.591299	0.078128	0.133801
	C1531	C	0.620542	0.112221	0.209304
	F1532	F	0.558315	0.041586	0.206077
	C1533	C	0.577658	0.053789	0.243870
	C1534	C	0.563686	0.047389	0.248887
	F1535	F	0.531680	0.026820	0.213490
	C1536	C	0.582527	0.062183	0.290212
	C1537	C	0.616075	0.082646	0.325474
	F1538	F	0.634576	0.097657	0.365837
	C1539	C	0.630333	0.087403	0.318821
	F1540	F	0.662493	0.106350	0.352378
	C1541	C	0.611238	0.072634	0.277406
	C1542	C	0.497232	0.007644	0.263587
	C1543	C	0.525640	0.015821	0.277056
	C1544	C	0.537857	0.031506	0.282790
	C1545	C	0.521686	0.039118	0.275517
	C1546	C	0.491604	0.028870	0.258107
	C1547	C	0.479497	0.013432	0.252528
	C1548	C	0.537377	0.004360	0.281698
	C1549	C	0.490398	-0.008631	0.260578
	N1550	N	0.515003	-0.010413	0.270878
	O1551	O	0.469223	-0.018064	0.252471
	O1552	O	0.560656	0.006350	0.292016
	C1553	C	0.540185	0.055810	0.284461
	C1554	C	0.566468	0.041922	0.294364
	N1555	N	0.566389	0.056215	0.294453
	O1556	O	0.585698	0.038716	0.300938
	O1557	O	0.535080	0.067014	0.283524
	C1558	C	0.445837	0.003436	0.229631
	C1559	C	0.467352	0.030985	0.242253
	N1560	N	0.439569	0.014013	0.223030
	O1561	O	0.469378	0.044107	0.244435
	O1562	O	0.426472	-0.011438	0.216881
	C1563	C	0.383760	0.160430	0.207314
	C1564	C	0.361256	0.163910	0.198400
	C1565	C	0.368785	0.184596	0.212123
	C1566	C	0.399530	0.202263	0.237337
	C1567	C	0.422866	0.200359	0.250028
	C1568	C	0.414809	0.178684	0.233197
	C1569	C	0.331270	0.141742	0.171889
	C1570	C	0.369346	0.136573	0.187687
	N1571	N	0.337864	0.126068	0.166807
	O1572	O	0.381297	0.127519	0.189126
	O1573	O	0.306313	0.137362	0.157489
	C1574	C	0.402049	0.221100	0.245383
	C1575	C	0.350706	0.193186	0.205440
	N1576	N	0.371855	0.214189	0.223952
	O1577	O	0.324662	0.185723	0.189629
	O1578	O	0.424572	0.238748	0.265044
	C1579	C	0.442593	0.178917	0.243695
	C1580	C	0.456981	0.217367	0.277238
	N1581	N	0.466494	0.202062	0.268151
	O1582	O	0.473863	0.239856	0.302663
	O1583	O	0.445225	0.163015	0.233183
	C1584	C	0.688660	0.354524	0.327169
	C1585	C	0.697818	0.357050	0.314681
	C1586	C	0.717260	0.350796	0.310915
	C1587	C	0.728039	0.343020	0.321193
	C1588	C	0.720831	0.342435	0.336994
	C1589	C	0.700368	0.347276	0.338592
	C1590	C	0.681078	0.364301	0.303486
	C1591	C	0.665448	0.359701	0.323743
	N1592	N	0.662145	0.365997	0.310038
	O1593	O	0.651165	0.358555	0.329980
	O1594	O	0.682559	0.368107	0.291122
	C1595	C	0.744783	0.334394	0.309313
	C1596	C	0.727123	0.347462	0.292061
	N1597	N	0.743794	0.337588	0.292133
	O1598	O	0.721014	0.350637	0.276909
	O1599	O	0.755470	0.324795	0.310649
	C1600	C	0.693570	0.341278	0.350388
	C1601	C	0.728645	0.334042	0.348871
	N1602	N	0.711004	0.333141	0.355632
	O1603	O	0.745955	0.328706	0.352257
	O1604	O	0.676439	0.342019	0.353961
	C1605	C	0.378168	0.324506	0.259678
	C1606	C	0.363089	0.335328	0.262439
	C1607	C	0.337153	0.326586	0.253483
	C1608	C	0.326634	0.306776	0.240816
	C1609	C	0.340661	0.294892	0.235535
	C1610	C	0.366789	0.304006	0.245677
	C1611	C	0.379998	0.355421	0.275474
	C1612	C	0.404880	0.337156	0.270968
	N1613	N	0.405274	0.355797	0.280770
	O1614	O	0.422877	0.332753	0.271296
	O1615	O	0.374059	0.368397	0.279553
	C1616	C	0.299486	0.301173	0.233942
	C1617	C	0.316498	0.334497	0.255343
	N1618	N	0.293815	0.317859	0.242091
	O1619	O	0.317890	0.351425	0.266203
	O1620	O	0.285023	0.286137	0.224448
	C1621	C	0.378395	0.289240	0.240747
	C1622	C	0.333486	0.273230	0.221790
	N1623	N	0.357342	0.271098	0.226449
	O1624	O	0.312277	0.259484	0.208887
	O1625	O	0.400695	0.291394	0.247241
	C1626	C	0.577569	0.193402	0.243253
	C1627	C	0.589323	0.218096	0.267864
	C1628	C	0.619214	0.234492	0.289728
	C1629	C	0.637273	0.226296	0.287375
	C1630	C	0.626128	0.202056	0.264494
	C1631	C	0.596282	0.185723	0.242389
	C1632	C	0.567259	0.223295	0.270060
	C1633	C	0.546724	0.181079	0.226446
	N1634	N	0.542894	0.200729	0.246043
	O1635	O	0.527964	0.159067	0.201292
	O1636	O	0.569437	0.242751	0.289534
	C1637	C	0.667995	0.247980	0.314277
	C1638	C	0.637642	0.261593	0.318014
	N1639	N	0.666313	0.268311	0.330781
	O1640	O	0.630425	0.275531	0.328322
	O1641	O	0.690037	0.248774	0.320966
	C1642	C	0.590394	0.161522	0.221432
	C1643	C	0.640490	0.188608	0.258206
	N1644	N	0.617537	0.164201	0.231734
	O1645	O	0.665866	0.195917	0.271937
	O1646	O	0.567598	0.142962	0.199970
	F1647	F	0.471054	-0.096668	0.184278
	C1648	C	0.494141	-0.069345	0.224612
	C1649	C	0.493230	-0.054354	0.226700
	F1650	F	0.469662	-0.067494	0.188139
	C1651	C	0.516543	-0.025683	0.268639
	C1652	C	0.541946	-0.012581	0.308075
	F1653	F	0.564987	0.014769	0.348607
	C1654	C	0.543552	-0.027673	0.305650
	F1655	F	0.568771	-0.014791	0.343468
	C1656	C	0.519071	-0.056170	0.264236
	F1657	F	0.357434	0.198035	0.160359
	C1658	C	0.360466	0.219441	0.191284
	C1659	C	0.357649	0.233794	0.192354
	F1660	F	0.350018	0.225026	0.160690
	C1661	C	0.362408	0.257097	0.225992
	C1662	C	0.369894	0.265510	0.258219
	F1663	F	0.376147	0.288441	0.292227
	C1664	C	0.370119	0.249879	0.254708
	F1665	F	0.373493	0.256474	0.282368
	C1666	C	0.366109	0.226977	0.221944
	F1667	F	0.489976	0.195242	0.205066
	C1668	C	0.497861	0.198905	0.231589
	C1669	C	0.480024	0.200258	0.238697
	F1670	F	0.455651	0.198655	0.219605
	C1671	C	0.486818	0.202774	0.264598
	C1672	C	0.513106	0.205347	0.285250
	F1673	F	0.520935	0.208795	0.311496
	C1674	C	0.531196	0.204277	0.278499
	F1675	F	0.556109	0.206385	0.297961
	C1676	C	0.523914	0.201211	0.251844
	F1677	F	0.670555	0.408671	0.379882
	C1678	C	0.647028	0.394004	0.339711
	C1679	C	0.626915	0.399902	0.333910
	F1680	F	0.631777	0.420166	0.368666
	C1681	C	0.601920	0.385072	0.292490
	C1682	C	0.600072	0.366179	0.259073
	F1683	F	0.579361	0.354314	0.221610
	C1684	C	0.619481	0.359596	0.264229
	F1685	F	0.615465	0.340173	0.230110
	C1686	C	0.642993	0.373053	0.304456
	F1687	F	0.714097	0.326302	0.419358
	C1688	C	0.704010	0.314292	0.383944
	C1689	C	0.714410	0.330279	0.389635
	F1690	F	0.734506	0.357546	0.430469
	C1691	C	0.703641	0.318007	0.352713
	C1692	C	0.683941	0.289533	0.310752
	F1693	F	0.674517	0.277463	0.275531
	C1694	C	0.673578	0.273602	0.305034
	F1695	F	0.654260	0.246329	0.264327
	C1696	C	0.682431	0.285698	0.340990
	F1697	F	0.378749	0.331793	0.206190
	C1698	C	0.410524	0.353345	0.245419
	C1699	C	0.429931	0.360793	0.246032
	F1700	F	0.416449	0.346214	0.207363
	C1701	C	0.463269	0.382881	0.285980
	C1702	C	0.476480	0.398111	0.326160
	F1703	F	0.508165	0.419790	0.365338
	C1704	C	0.456994	0.390803	0.325718
	F1705	F	0.469967	0.405950	0.364641
	C1706	C	0.423970	0.367560	0.284847
	C1707	C	0.539115	0.391032	0.279450
	C1708	C	0.547476	0.400089	0.274041
	C1709	C	0.533331	0.409367	0.268553
	C1710	C	0.512062	0.410427	0.270391
	C1711	C	0.503504	0.401077	0.275505
	C1712	C	0.516834	0.391344	0.279896
	C1713	C	0.573094	0.398850	0.277786
	C1714	C	0.557442	0.382073	0.283824
	N1715	N	0.578295	0.388046	0.284119
	O1716	O	0.555739	0.371596	0.286401
	O1717	O	0.587463	0.405538	0.276480
	C1718	C	0.502712	0.423061	0.267233
	C1719	C	0.537972	0.421091	0.263551
	N1720	N	0.519015	0.429101	0.263241
	O1721	O	0.554082	0.423806	0.260402
	O1722	O	0.485968	0.428603	0.269508
	C1723	C	0.502563	0.382383	0.283841
	C1724	C	0.481518	0.399869	0.278553
	N1725	N	0.482237	0.388825	0.284262
	O1726	O	0.465747	0.406568	0.276455
	O1727	O	0.505926	0.371128	0.285043
	C1728	C	0.020928	0.236964	0.373045
	C1729	C	0.008834	0.221526	0.367474
	C1730	C	-0.021063	0.211549	0.350584
	C1731	C	-0.037725	0.218515	0.342082
	C1732	C	-0.025276	0.234526	0.348435
	C1733	C	0.003393	0.243064	0.362583
	C1734	C	0.033095	0.219417	0.383333
	C1735	C	0.054582	0.246947	0.395908
	N1736	N	0.060847	0.236344	0.402463
	O1737	O	0.073948	0.261830	0.408671
	O1738	O	0.031089	0.206322	0.381204
	C1739	C	-0.066226	0.208235	0.330777
	C1740	C	-0.039792	0.194533	0.341027
	N1741	N	-0.066124	0.193971	0.330743
	O1742	O	-0.034723	0.183276	0.341857
	O1743	O	-0.085418	0.211487	0.324292
	C1744	C	0.010000	0.259042	0.365027
	C1745	C	-0.037139	0.245834	0.343498
	N1746	N	-0.014722	0.260675	0.354438
	O1747	O	-0.060530	0.243697	0.332904
	O1748	O	0.031127	0.268410	0.373015
	F1749	F	0.077688	0.212255	0.360066
	C1750	C	0.095623	0.226112	0.399298
	C1751	C	0.119148	0.224996	0.414468
	F1752	F	0.120827	0.207543	0.386708
	C1753	C	0.140588	0.241553	0.457703
	C1754	C	0.137029	0.258808	0.484669
	F1755	F	0.158063	0.276009	0.527108
	C1756	C	0.111492	0.257987	0.467512
	F1757	F	0.107480	0.273642	0.492824
	C1758	C	0.089789	0.240944	0.423843
	F1759	F	0.029033	0.346858	0.440835
	C1760	C	0.005956	0.319536	0.400531
	C1761	C	0.006980	0.304569	0.398483
	F1762	F	0.030470	0.317755	0.437111
	C1763	C	-0.016306	0.275896	0.356578
	C1764	C	-0.041648	0.262748	0.317072
	F1765	F	-0.064716	0.235402	0.276588
	C1766	C	-0.043285	0.277804	0.319421
	F1767	F	-0.068536	0.264890	0.281576
	C1768	C	-0.018915	0.306317	0.360843
	F1769	F	0.968318	0.223210	0.411524
	C1770	C	0.936303	0.202617	0.376000
	C1771	C	0.922218	0.195966	0.380666
	F1772	F	0.941457	0.208117	0.418400
	C1773	C	0.888620	0.177114	0.347029
	C1774	C	0.869649	0.162437	0.305714
	F1775	F	0.837481	0.143437	0.272010
	C1776	C	0.884045	0.167338	0.299312
	F1777	F	0.865668	0.152399	0.259030
	C1778	C	0.917602	0.187871	0.334740
	C1779	C	0.190590	0.225922	0.482914
	C1780	C	0.200736	0.232210	0.475115
	C1781	C	0.218618	0.225594	0.467853
	C1782	C	0.227734	0.214152	0.470991
	C1783	C	0.220570	0.210517	0.483765
	C1784	C	0.201277	0.215622	0.488410
	C1785	C	0.185827	0.242578	0.470342
	C1786	C	0.167228	0.230832	0.480983
	N1787	N	0.164891	0.240348	0.472388
	O1788	O	0.152048	0.227053	0.484287
	O1789	O	0.189883	0.251200	0.465475
	C1790	C	0.241367	0.204885	0.453835
	C1791	C	0.227368	0.225184	0.450504
	N1792	N	0.239413	0.211211	0.440495
	O1793	O	0.224530	0.233809	0.444304
	O1794	O	0.250454	0.192774	0.448573
	C1795	C	0.193013	0.205219	0.493886
	C1796	C	0.227160	0.198555	0.489267
	N1797	N	0.209077	0.194994	0.493787
	O1798	O	0.244675	0.193328	0.490960
	O1799	O	0.176043	0.204788	0.497296
	C1800	C	-0.047892	0.349555	0.350149
	C1801	C	-0.039041	0.359160	0.345707
	C1802	C	-0.016852	0.358768	0.345092
	C1803	C	-0.004049	0.348485	0.348477
	C1804	C	-0.011841	0.339874	0.354942
	C1805	C	-0.033652	0.340364	0.355779
	C1806	C	-0.057599	0.367880	0.340918
	C1807	C	-0.073278	0.351039	0.346861
	N1808	N	-0.078451	0.361887	0.340608
	O1809	O	-0.087536	0.344460	0.348372
	O1810	O	-0.056027	0.378238	0.338118
	C1811	C	0.018270	0.350057	0.346052
	C1812	C	-0.003036	0.367300	0.340342
	N1813	N	0.017364	0.360935	0.340044
	O1814	O	-0.006760	0.378217	0.338510
	O1815	O	0.034387	0.343708	0.348757
	C1816	C	-0.037876	0.329028	0.361494
	C1817	C	-0.002759	0.326951	0.357562
	N1818	N	-0.018916	0.321017	0.361781
	O1819	O	0.013733	0.321177	0.354831
	O1820	O	-0.053724	0.326551	0.365100
	C1821	C	0.839666	0.177672	0.406131
	C1822	C	0.838445	0.182532	0.391391
	C1823	C	0.854888	0.179326	0.381305
	C1824	C	0.871968	0.171367	0.386234
	C1825	C	0.874782	0.168284	0.403945
	C1826	C	0.858410	0.171261	0.413546
	C1827	C	0.815668	0.188303	0.386120
	C1828	C	0.818376	0.180109	0.410933
	N1829	N	0.804147	0.186086	0.397868
	O1830	O	0.812785	0.177160	0.422384
	O1831	O	0.807755	0.193619	0.374371
	C1832	C	0.884745	0.167117	0.369688
	C1833	C	0.858236	0.182212	0.364056
	N1834	N	0.875772	0.173865	0.356559
	O1835	O	0.849393	0.190654	0.358511
	O1836	O	0.899581	0.159275	0.367035
	C1837	C	0.861225	0.162640	0.424833
	C1838	C	0.890326	0.159085	0.411277
	N1839	N	0.880341	0.155187	0.422324
	O1840	O	0.907577	0.155031	0.408448
	O1841	O	0.849364	0.160892	0.432954
	F1842	F	0.183349	0.141243	0.418390
	C1843	C	0.187719	0.151116	0.449382
	C1844	C	0.177024	0.133749	0.441245
	F1845	F	0.163381	0.107599	0.403303
	C1846	C	0.179564	0.143087	0.471718
	C1847	C	0.195901	0.170957	0.512692
	F1848	F	0.199383	0.180631	0.543035
	C1849	C	0.208129	0.188657	0.521906
	F1850	F	0.225083	0.215452	0.562236
	C1851	C	0.202389	0.178631	0.489081
	F1852	F	0.187244	0.170136	0.347992
	C1853	C	0.216787	0.179245	0.367021
	C1854	C	0.220495	0.166906	0.339827
	F1855	F	0.194830	0.146906	0.295502
	C1856	C	0.250970	0.175411	0.358813
	C1857	C	0.277658	0.198672	0.406294
	F1858	F	0.307165	0.209170	0.425545
	C1859	C	0.274198	0.211141	0.433652
	F1860	F	0.300454	0.233037	0.478885
	C1861	C	0.243439	0.200803	0.413936
	F1862	F	0.867951	0.329735	0.256071
	C1863	C	0.872883	0.350035	0.290889
	C1864	C	0.852932	0.356084	0.285260
	F1865	F	0.829286	0.341344	0.245032
	C1866	C	0.857055	0.377087	0.320594
	C1867	C	0.880612	0.390555	0.360828
	F1868	F	0.884731	0.410044	0.395040
	C1869	C	0.899960	0.383910	0.365892
	F1870	F	0.920742	0.395807	0.403386
	C1871	C	0.897977	0.364921	0.332348
	F1872	F	0.082994	0.404021	0.417281
	C1873	C	0.069638	0.389189	0.378475
	C1874	C	0.089060	0.396706	0.379168
	F1875	F	0.120782	0.418406	0.418507
	C1876	C	0.075728	0.382243	0.339592
	C1877	C	0.042785	0.358828	0.298616
	F1878	F	0.029933	0.343506	0.259624
	C1879	C	0.023253	0.351523	0.298131
	F1880	F	-0.008371	0.329684	0.258838
	C1881	C	0.036357	0.366921	0.338387
	F1882	F	0.908787	0.171991	0.490979
	C1883	C	0.893060	0.146191	0.449594
	C1884	C	0.890844	0.128105	0.441029
	F1885	F	0.902372	0.135866	0.473004
	C1886	C	0.876817	0.101802	0.399045
	C1887	C	0.861320	0.092695	0.363856
	F1888	F	0.846149	0.067023	0.322696
	C1889	C	0.862217	0.110324	0.371734
	F1890	F	0.847173	0.101198	0.337571
	C1891	C	0.879171	0.137580	0.415188
	F1892	F	0.817836	0.231616	0.472359
	C1893	C	0.787002	0.208282	0.431672
	C1894	C	0.762984	0.206103	0.428309
	F1895	F	0.771024	0.227166	0.466040
	C1896	C	0.730390	0.182169	0.385835
	C1897	C	0.722742	0.160258	0.347125
	F1898	F	0.691851	0.137184	0.306173
	C1899	C	0.746851	0.162099	0.350651
	F1900	F	0.738816	0.140560	0.313082
	C1901	C	0.779350	0.186072	0.393017
	C1902	C	0.116008	0.089484	0.417304
	C1903	C	0.138785	0.086379	0.427080
	C1904	C	0.131323	0.065732	0.413443
	C1905	C	0.100378	0.047680	0.387413
	C1906	C	0.077406	0.050191	0.376160
	C1907	C	0.085397	0.071808	0.392855
	C1908	C	0.168497	0.108182	0.452723
	C1909	C	0.130425	0.113369	0.436995
	N1910	N	0.161823	0.123760	0.457596
	O1911	O	0.118523	0.122502	0.435751
	O1912	O	0.193336	0.112402	0.466731
	C1913	C	0.097950	0.028940	0.379585
	C1914	C	0.149247	0.056856	0.419450
	N1915	N	0.128135	0.035830	0.400925
	O1916	O	0.175168	0.064174	0.434883
	O1917	O	0.075488	0.011350	0.360076
	C1918	C	0.057311	0.071215	0.381488
	C1919	C	0.043090	0.032876	0.348211
	N1920	N	0.033406	0.048036	0.356968
	O1921	O	0.026205	0.010306	0.322564
	O1922	O	0.054485	0.086924	0.391521
	C1923	C	0.311034	0.145007	0.296991
	C1924	C	0.302622	0.143270	0.310764
	C1925	C	0.283156	0.149499	0.314475
	C1926	C	0.271618	0.156535	0.302980
	C1927	C	0.279518	0.157757	0.288257
	C1928	C	0.299307	0.152231	0.285522
	C1929	C	0.319200	0.135869	0.321720
	C1930	C	0.334453	0.140048	0.300788
	N1931	N	0.337973	0.133994	0.314893
	O1932	O	0.348694	0.141146	0.294474
	O1933	O	0.317733	0.132104	0.334143
	C1934	C	0.255326	0.165592	0.315541
	C1935	C	0.273021	0.152596	0.332922
	N1936	N	0.256343	0.162455	0.332807
	O1937	O	0.278973	0.149293	0.347868
	O1938	O	0.244897	0.175397	0.314535
	C1939	C	0.306352	0.158468	0.274136
	C1940	C	0.271248	0.165676	0.275586
	N1941	N	0.288860	0.166541	0.268771
	O1942	O	0.253704	0.170765	0.271780
	O1943	O	0.323678	0.157921	0.270909
	C1944	C	0.771969	0.407063	0.303702
	C1945	C	0.782828	0.399385	0.314151
	C1946	C	0.802250	0.393106	0.310365
	C1947	C	0.811265	0.395471	0.297621
	C1948	C	0.799113	0.402241	0.285402
	C1949	C	0.779005	0.407450	0.287597
	C1950	C	0.773131	0.402902	0.333276
	C1951	C	0.755395	0.415861	0.315833
	N1952	N	0.756472	0.412781	0.333190
	O1953	O	0.744756	0.425487	0.314524
	O1954	O	0.779337	0.399842	0.348609
	C1955	C	0.834486	0.390304	0.301073
	C1956	C	0.819123	0.386005	0.321812
	N1957	N	0.837955	0.384194	0.315083
	O1958	O	0.817780	0.382357	0.334430
	O1959	O	0.848661	0.391328	0.294638
	C1960	C	0.771161	0.415791	0.275631
	C1961	C	0.806213	0.408522	0.274097
	N1962	N	0.788810	0.416681	0.268873
	O1963	O	0.823506	0.407933	0.270808
	O1964	O	0.753824	0.421096	0.272178
	C1965	C	0.132289	0.445089	0.377279
	C1966	C	0.158800	0.454566	0.388253
	C1967	C	0.173308	0.443127	0.383992
	C1968	C	0.162338	0.422911	0.370407
	C1969	C	0.136580	0.414352	0.361834
	C1970	C	0.121307	0.424984	0.364160
	C1971	C	0.166037	0.476275	0.402107
	C1972	C	0.120836	0.460000	0.382518
	N1973	N	0.142057	0.478286	0.397155
	O1974	O	0.098507	0.457825	0.375954
	O1975	O	0.187382	0.490145	0.415306
	C1976	C	0.183476	0.415445	0.369561
	C1977	C	0.200406	0.448676	0.390758
	N1978	N	0.206206	0.432122	0.382903
	O1979	O	0.214765	0.463600	0.400016
	O1980	O	0.182342	0.398750	0.359236
	C1981	C	0.094592	0.412351	0.352883
	C1982	C	0.119790	0.394402	0.349099
	N1983	N	0.094404	0.393925	0.343556
	O1984	O	0.125902	0.381617	0.345439
	O1985	O	0.076446	0.416619	0.352230
	C1986	C	0.922445	0.056816	0.382014
	C1987	C	0.911112	0.032441	0.358325
	C1988	C	0.881187	0.015987	0.336345
	C1989	C	0.862719	0.023816	0.337695
	C1990	C	0.874312	0.048504	0.361849
	C1991	C	0.904190	0.064901	0.384070
	C1992	C	0.932914	0.027056	0.355555
	C1993	C	0.953398	0.069241	0.399085
	N1994	N	0.957184	0.049562	0.379387
	O1995	O	0.972228	0.091306	0.424412
	O1996	O	0.930649	0.007542	0.335898
	C1997	C	0.832023	0.002116	0.310804
	C1998	C	0.862485	-0.011388	0.307266
	N1999	N	0.833689	-0.018248	0.294181
	O2000	O	0.869618	-0.025406	0.296672
	O2001	O	0.809986	0.001312	0.304149
	C2002	C	0.909752	0.088813	0.404249
	C2003	C	0.859625	0.061644	0.367333
	N2004	N	0.882493	0.086004	0.393649
	O2005	O	0.834101	0.054167	0.353198
	O2006	O	0.932433	0.107282	0.425444
	C2007	C	0.672885	0.192644	0.382946
	C2008	C	0.662423	0.172918	0.370460
	C2009	C	0.636568	0.164279	0.361690
	C2010	C	0.621536	0.175144	0.364521
	C2011	C	0.632850	0.195554	0.378329
	C2012	C	0.658618	0.204303	0.387686
	C2013	C	0.683120	0.165040	0.368716
	C2014	C	0.699974	0.198171	0.389692
	N2015	N	0.705733	0.181585	0.381782
	O2016	O	0.714331	0.213077	0.398922
	O2017	O	0.681799	0.148192	0.358046
	C2018	C	0.595023	0.162711	0.353679
	C2019	C	0.619790	0.144341	0.348983
	N2020	N	0.594652	0.144111	0.343971
	O2021	O	0.625726	0.131373	0.344928
	O2022	O	0.577142	0.167229	0.353574
	C2023	C	0.666160	0.226282	0.402157
	C2024	C	0.621380	0.210445	0.383514
	N2025	N	0.642477	0.228599	0.397862
	O2026	O	0.599141	0.208365	0.377154
	O2027	O	0.687488	0.240105	0.415277
	F2028	F	-0.056080	0.043889	0.327426
	C2029	C	-0.031148	0.046019	0.346909
	C2030	C	-0.013177	0.044798	0.339941
	F2031	F	-0.021069	0.041281	0.313598
	C2032	C	0.013082	0.047325	0.360524
	C2033	C	0.019906	0.049870	0.386468
	F2034	F	0.044265	0.051455	0.405537
	C2035	C	0.002091	0.051240	0.393609
	F2036	F	0.010080	0.055030	0.420306
	C2037	C	-0.023882	0.049047	0.373515
	F2038	F	0.127065	0.493951	0.342947
	C2039	C	0.130096	0.500226	0.370144
	C2040	C	0.130002	0.484342	0.366130
	F2041	F	0.123783	0.461470	0.332069
	C2042	C	0.137200	0.492478	0.397980
	C2043	C	0.141952	0.515739	0.431699
	F2044	F	0.149415	0.524293	0.463100
	C2045	C	0.139267	0.530252	0.433089
	F2046	F	0.142430	0.551689	0.464209
	C2047	C	0.133886	0.522978	0.402787
	F2048	F	0.384627	0.159861	0.394889
	C2049	C	0.380569	0.140382	0.360741
	C2050	C	0.400026	0.133849	0.365983
	F2051	F	0.420715	0.145723	0.403455
	C2052	C	0.398228	0.114978	0.332620
	C2053	C	0.373277	0.100149	0.291195
	F2054	F	0.368463	0.079900	0.256487
	C2055	C	0.353190	0.106061	0.285367
	F2056	F	0.329609	0.091312	0.245124
	C2057	C	0.357144	0.126966	0.320547
	F2058	F	0.265342	0.142065	0.193858
	C2059	C	0.285339	0.169329	0.234630
	C2060	C	0.295801	0.185292	0.240303
	F2061	F	0.285616	0.173251	0.204824
	C2062	C	0.317305	0.213885	0.283201
	C2063	C	0.326171	0.226006	0.319184
	F2064	F	0.345454	0.253279	0.359858
	C2065	C	0.315855	0.210106	0.313534
	F2066	F	0.325306	0.222207	0.348791
	C2067	C	0.296179	0.181634	0.271607
	F2068	F	0.845764	0.503599	0.360528
	C2069	C	0.826324	0.476321	0.319714
	C2070	C	0.815994	0.460341	0.313926
	F2071	F	0.825464	0.472362	0.349130
	C2072	C	0.796246	0.431868	0.271899
	C2073	C	0.785487	0.419655	0.235029
	F2074	F	0.765329	0.392390	0.194126
	C2075	C	0.795991	0.435702	0.240857
	F2076	F	0.785846	0.423748	0.205463
	C2077	C	0.817529	0.464291	0.283835
	F2078	F	0.694889	0.397099	0.295747
	C2079	C	0.720552	0.417132	0.340093
	C2080	C	0.716816	0.429430	0.367248
	F2081	F	0.687251	0.420252	0.348162
	C2082	C	0.743460	0.451012	0.414178
	C2083	C	0.774239	0.461460	0.433964
	F2084	F	0.800473	0.483299	0.479177
	C2085	C	0.777727	0.449041	0.406644
	F2086	F	0.807235	0.459534	0.425906
	C2087	C	0.751055	0.425712	0.359142
	F2088	F	0.271544	0.477639	0.467216
	C2089	C	0.263482	0.456611	0.429457
	C2090	C	0.287495	0.458773	0.432803
	F2091	F	0.318356	0.482052	0.473521
	C2092	C	0.279804	0.436598	0.394093
	C2093	C	0.247278	0.412696	0.351697
	F2094	F	0.239218	0.391142	0.314108
	C2095	C	0.223188	0.410870	0.348208
	F2096	F	0.192294	0.387796	0.307280
	C2097	C	0.230872	0.432723	0.386970
	F2098	F	0.649953	0.274683	0.463947
	C2099	C	0.642477	0.266121	0.432533
	C2100	C	0.639647	0.280561	0.433794
	F2101	F	0.642816	0.302001	0.464920
	C2102	C	0.634147	0.273231	0.403387
	C2103	C	0.630208	0.250404	0.370611
	F2104	F	0.627156	0.244106	0.343382
	C2105	C	0.630232	0.234580	0.366711
	F2106	F	0.623924	0.211667	0.332575
	C2107	C	0.637591	0.242793	0.398699
	F2108	F	0.530101	0.093850	0.260194
	C2109	C	0.543079	0.109080	0.299175
	C2110	C	0.523603	0.101850	0.298813
	F2111	F	0.491944	0.080093	0.259610
	C2112	C	0.536804	0.117218	0.339087
	C2113	C	0.570097	0.139452	0.379109
	F2114	F	0.583551	0.154202	0.417894
	C2115	C	0.589468	0.146884	0.379673
	F2116	F	0.621225	0.168494	0.418909
	C2117	C	0.576040	0.132453	0.340085
	C2118	C	0.466802	0.090654	0.356483
	C2119	C	0.488038	0.089575	0.354586
	C2120	C	0.496289	0.098643	0.348947
	C2121	C	0.483586	0.109029	0.345752
	C2122	C	0.461033	0.109041	0.345680
	C2123	C	0.452643	0.099929	0.351004
	C2124	C	0.497303	0.076841	0.357553
	C2125	C	0.462212	0.078955	0.361539
	N2126	N	0.481090	0.070865	0.361684
	O2127	O	0.446196	0.076316	0.364845
	O2128	O	0.513936	0.071199	0.355071
	C2129	C	0.497491	0.117657	0.341175
	C2130	C	0.518595	0.100203	0.346499
	N2131	N	0.517858	0.111262	0.340814
	O2132	O	0.534575	0.093711	0.348946
	O2133	O	0.493865	0.128676	0.339531
	C2134	C	0.426984	0.101118	0.347186
	C2135	C	0.442822	0.118125	0.341549
	N2136	N	0.421874	0.112033	0.341051
	O2137	O	0.444670	0.128771	0.339281
	O2138	O	0.412516	0.094311	0.348285
	C2139	C	0.380705	0.265330	0.335045
	C2140	C	0.362578	0.273459	0.337288
	C2141	C	0.373933	0.297930	0.360826
	C2142	C	0.403653	0.314179	0.382638
	C2143	C	0.422450	0.306583	0.381937
	C2144	C	0.410896	0.282016	0.357700
	C2145	C	0.331735	0.251629	0.310009
	C2146	C	0.362177	0.238107	0.306416
	N2147	N	0.333400	0.231267	0.293387
	O2148	O	0.369399	0.224166	0.296050
	O2149	O	0.309630	0.250768	0.303174
	C2150	C	0.409381	0.338259	0.403280
	C2151	C	0.359222	0.311048	0.366274
	N2152	N	0.382100	0.335426	0.392637
	O2153	O	0.333680	0.303547	0.352088
	O2154	O	0.432165	0.356845	0.424775
	C2155	C	0.432735	0.276674	0.354977
	C2156	C	0.453246	0.318911	0.398663
	N2157	N	0.457036	0.299236	0.378932
	O2158	O	0.471991	0.340935	0.423839
	O2159	O	0.430473	0.257154	0.335274
	C2160	C	0.690441	0.475886	0.482863
	C2161	C	0.700583	0.482202	0.475095
	C2162	C	0.718526	0.475656	0.467925
	C2163	C	0.727719	0.464265	0.471142
	C2164	C	0.720547	0.460595	0.483874
	C2165	C	0.701185	0.465622	0.488411
	C2166	C	0.685602	0.492516	0.470241
	C2167	C	0.667022	0.480731	0.480851
	N2168	N	0.664646	0.490236	0.472234
	O2169	O	0.651822	0.476907	0.484098
	O2170	O	0.689619	0.501130	0.465350
	C2171	C	0.741446	0.455094	0.454119
	C2172	C	0.727281	0.475282	0.450613
	N2173	N	0.739418	0.461384	0.440708
	O2174	O	0.724382	0.483881	0.444364
	O2175	O	0.750666	0.443083	0.449017
	C2176	C	0.692925	0.455190	0.493847
	C2177	C	0.727198	0.448670	0.489440
	N2178	N	0.709059	0.445028	0.493841
	O2179	O	0.744793	0.443526	0.491258
	O2180	O	0.675899	0.454690	0.497153
	C2181	C	0.372191	0.421661	0.386775
	C2182	C	0.354591	0.429127	0.381081
	C2183	C	0.338252	0.432400	0.391325
	C2184	C	0.339984	0.428033	0.406883
	C2185	C	0.357814	0.420660	0.412681
	C2186	C	0.374479	0.418009	0.403580
	C2187	C	0.358282	0.432406	0.364452
	C2188	C	0.384693	0.417191	0.369822
	N2189	N	0.375757	0.424019	0.356833
	O2190	O	0.399332	0.409167	0.366826
	O2191	O	0.349669	0.441088	0.359332
	C2192	C	0.318519	0.430262	0.411383
	C2193	C	0.316026	0.438753	0.387040
	N2194	N	0.304536	0.436535	0.398812
	O2195	O	0.308441	0.444444	0.375908
	O2196	O	0.312665	0.426993	0.422329
	C2197	C	0.389995	0.408754	0.410790
	C2198	C	0.360971	0.412324	0.424458
	N2199	N	0.380039	0.404830	0.421829
	O2200	O	0.349331	0.410749	0.432916
	O2201	O	0.407222	0.404693	0.407903
	C2202	C	0.577297	0.299898	0.375521
	C2203	C	0.585396	0.321688	0.392640
	C2204	C	0.616204	0.339652	0.417761
	C2205	C	0.638747	0.336215	0.426740
	C2206	C	0.631499	0.315893	0.413840
	C2207	C	0.600678	0.298045	0.388280
	C2208	C	0.557303	0.321081	0.381270
	C2209	C	0.543123	0.282764	0.348067
	N2210	N	0.533446	0.297932	0.356842
	O2211	O	0.526313	0.260280	0.322684
	O2212	O	0.554441	0.336762	0.391242
	C2213	C	0.668575	0.358207	0.452800
	C2214	C	0.630432	0.363307	0.436905
	N2215	N	0.661844	0.373730	0.457554
	O2216	O	0.618408	0.372282	0.435311
	O2217	O	0.693515	0.362571	0.467120
	C2218	C	0.598181	0.279160	0.380127
	C2219	C	0.649465	0.307076	0.419974
	N2220	N	0.628383	0.286082	0.401522
	O2221	O	0.675395	0.314409	0.435433
	O2222	O	0.575676	0.261474	0.360423
	F2223	F	0.434961	-0.014915	0.275992
	C2224	C	0.458031	0.012433	0.316573
	C2225	C	0.456536	0.027573	0.319083
	F2226	F	0.431322	0.014752	0.281336
	C2227	C	0.480982	0.056082	0.360582
	C2228	C	0.505828	0.069206	0.400167
	F2229	F	0.528879	0.096535	0.440571
	C2230	C	0.506701	0.054156	0.397961
	F2231	F	0.530102	0.067254	0.436506
	C2232	C	0.483365	0.025484	0.355968
	F2233	F	0.345811	0.316604	0.321884
	C2234	C	0.360902	0.342229	0.363042
	C2235	C	0.361880	0.359930	0.371075
	F2236	F	0.346860	0.350872	0.336987
	C2237	C	0.378848	0.387170	0.414576
	C2238	C	0.392791	0.395723	0.448931
	F2239	F	0.408416	0.421472	0.490301
	C2240	C	0.390506	0.377567	0.440214
	F2241	F	0.402019	0.385250	0.472103
	C2242	C	0.376461	0.351284	0.398181
	F2243	F	0.478987	0.291189	0.313486
	C2244	C	0.486859	0.294687	0.339801
	C2245	C	0.468843	0.295858	0.346692
	F2246	F	0.443916	0.293727	0.327200
	C2247	C	0.476047	0.298815	0.373199
	C2248	C	0.502101	0.301122	0.393453
	F2249	F	0.509960	0.304749	0.419927
	C2250	C	0.519991	0.299843	0.386446
	F2251	F	0.544318	0.301388	0.405465
	C2252	C	0.513133	0.297237	0.360420
	F2253	F	0.657731	0.525876	0.526828
	C2254	C	0.636734	0.508662	0.484382
	C2255	C	0.611109	0.507732	0.467083
	F2256	F	0.607088	0.523411	0.492369
	C2257	C	0.589352	0.490581	0.423321
	C2258	C	0.595137	0.475662	0.398737
	F2259	F	0.577208	0.461757	0.359464
	C2260	C	0.618786	0.474690	0.414096
	F2261	F	0.620514	0.457245	0.386405
	C2262	C	0.640273	0.491354	0.457425
	F2263	F	0.699034	0.430535	0.542780
	C2264	C	0.695816	0.420935	0.512645
	C2265	C	0.707980	0.438642	0.521848
	F2266	F	0.724747	0.465406	0.562073
	C2267	C	0.702407	0.428667	0.489149
	C2268	C	0.687877	0.401186	0.449544
	F2269	F	0.683807	0.391395	0.418783
	C2270	C	0.677248	0.383820	0.441432
	F2271	F	0.663826	0.357727	0.403649
	C2272	C	0.679599	0.393090	0.471740
	F2273	F	0.337282	0.393515	0.272203
	C2274	C	0.369440	0.412510	0.305825
	C2275	C	0.383741	0.417245	0.299187
	F2276	F	0.365272	0.402242	0.258836
	C2277	C	0.417297	0.437697	0.334469
	C2278	C	0.436104	0.452467	0.375768
	F2279	F	0.468109	0.473056	0.411211
	C2280	C	0.422100	0.445989	0.380677
	F2281	F	0.441408	0.458217	0.418493
	C2282	C	0.388510	0.427200	0.347167
	C2283	C	0.508326	0.471038	0.366715
	C2284	C	0.520392	0.486406	0.372165
	C2285	C	0.502644	0.492167	0.361050
	C2286	C	0.474197	0.483950	0.347488
	C2287	C	0.461773	0.468022	0.341275
	C2288	C	0.478421	0.461061	0.349805
	C2289	C	0.554047	0.496398	0.395054
	C2290	C	0.532656	0.469053	0.382820
	N2291	N	0.560387	0.485940	0.401874
	O2292	O	0.530711	0.456073	0.380912
	O2293	O	0.573364	0.511190	0.407647
	C2294	C	0.462385	0.495296	0.342614
	C2295	C	0.509510	0.508456	0.364092
	N2296	N	0.484851	0.510167	0.353636
	O2297	O	0.530750	0.517949	0.372332
	O2298	O	0.438997	0.493167	0.332012
	C2299	C	0.459717	0.444119	0.340369
	C2300	C	0.433382	0.457910	0.330255
	N2301	N	0.433470	0.443665	0.330258
	O2302	O	0.414283	0.461268	0.323948
	O2303	O	0.464730	0.432822	0.341128
	C2304	C	0.047624	0.150297	0.524488
	C2305	C	0.039364	0.141329	0.530064
	C2306	C	0.017168	0.141719	0.530665
	C2307	C	0.003779	0.151403	0.526195
	C2308	C	0.012255	0.160690	0.520958
	C2309	C	0.033746	0.159863	0.519528
	C2310	C	0.057612	0.132283	0.534268
	C2311	C	0.073173	0.148990	0.528091
	N2312	N	0.078373	0.138168	0.534390
	O2313	O	0.087491	0.155638	0.526701
	O2314	O	0.055919	0.121806	0.536848
	C2315	C	-0.018243	0.150144	0.529170
	C2316	C	0.002988	0.132829	0.534754
	N2317	N	-0.017400	0.139205	0.535072
	O2318	O	0.006465	0.121671	0.536138
	O2319	O	-0.034135	0.156722	0.526865
	C2320	C	0.037866	0.171074	0.513594
	C2321	C	0.002768	0.173197	0.517567
	N2322	N	0.018861	0.179038	0.513203
	O2323	O	-0.013918	0.178794	0.519943
	O2324	O	0.053687	0.173508	0.509927
	F2325	F	0.079282	0.104369	0.471718
	C2326	C	0.100084	0.116269	0.509214
	C2327	C	0.119387	0.109581	0.514217
	F2328	F	0.115306	0.090136	0.480033
	C2329	C	0.142889	0.122981	0.554383
	C2330	C	0.146955	0.143923	0.589681
	F2331	F	0.170556	0.158605	0.629856
	C2332	C	0.126959	0.149936	0.584037
	F2333	F	0.131912	0.170246	0.618876
	C2334	C	0.101954	0.135143	0.542659
	F2335	F	0.064715	0.264651	0.598446
	C2336	C	0.041659	0.237302	0.557932
	C2337	C	0.043290	0.222226	0.555534
	F2338	F	0.068441	0.235134	0.593406
	C2339	C	0.018876	0.193719	0.514106
	C2340	C	-0.005951	0.180513	0.474422
	F2341	F	-0.029046	0.153192	0.434107
	C2342	C	-0.006888	0.195495	0.476491
	F2343	F	-0.030390	0.182335	0.437897
	C2344	C	0.016353	0.224171	0.518437
	F2345	F	1.008692	0.170367	0.616348
	C2346	C	0.977001	0.148688	0.577233
	C2347	C	0.957623	0.141399	0.576914
	F2348	F	0.970671	0.156643	0.615932
	C2349	C	0.924624	0.118100	0.536085
	C2350	C	0.911105	0.103731	0.496512
	F2351	F	0.879326	0.082171	0.457342
	C2352	C	0.930396	0.111177	0.497012
	F2353	F	0.916821	0.096526	0.458257
	C2354	C	0.963719	0.133321	0.536928
	C2355	C	0.188440	0.104332	0.576902
	C2356	C	0.197545	0.106805	0.564326
	C2357	C	0.216949	0.100515	0.560499
	C2358	C	0.227737	0.092746	0.570789
	C2359	C	0.220577	0.092208	0.586666
	C2360	C	0.200161	0.097096	0.588345
	C2361	C	0.180840	0.114092	0.553190
	C2362	C	0.165271	0.109556	0.573552
	N2363	N	0.161967	0.115849	0.559843
	O2364	O	0.151016	0.108440	0.579839
	O2365	O	0.182317	0.117892	0.540817
	C2366	C	0.244462	0.084104	0.558879
	C2367	C	0.226764	0.097141	0.541578
	N2368	N	0.243464	0.087293	0.541689
	O2369	O	0.220589	0.100262	0.526338
	O2370	O	0.255148	0.074504	0.560214
	C2371	C	0.193437	0.091170	0.600267
	C2372	C	0.228416	0.083838	0.598580
	N2373	N	0.210842	0.083002	0.605455
	O2374	O	0.245700	0.078474	0.601913
	O2375	O	0.176384	0.091991	0.603979
	C2376	C	-0.020764	0.263104	0.501971
	C2377	C	-0.008275	0.279118	0.508635
	C2378	C	0.021652	0.289112	0.525592
	C2379	C	0.037837	0.281534	0.532946
	C2380	C	0.025844	0.266168	0.527812
	C2381	C	-0.002835	0.257639	0.513652
	C2382	C	-0.032745	0.280858	0.492051
	C2383	C	-0.054331	0.253270	0.479338
	N2384	N	-0.060583	0.263819	0.472681
	O2385	O	-0.073674	0.238488	0.466738
	O2386	O	-0.030806	0.293807	0.493899
	C2387	C	0.066465	0.291949	0.544545
	C2388	C	0.040179	0.305808	0.534559
	N2389	N	0.066399	0.306226	0.544605
	O2390	O	0.035083	0.316999	0.533591
	O2391	O	0.085703	0.288754	0.551162
	C2392	C	-0.009800	0.241212	0.510347
	C2393	C	0.037327	0.254386	0.531838
	N2394	N	0.014822	0.239454	0.520702
	O2395	O	0.060536	0.256285	0.541985
	O2396	O	-0.031065	0.231674	0.502034
	C2397	C	0.827053	0.057252	0.491722
	C2398	C	0.838086	0.077500	0.505391
	C2399	C	0.864096	0.086277	0.514481
	C2400	C	0.878812	0.075112	0.510990
	C2401	C	0.868033	0.055227	0.498362
	C2402	C	0.841546	0.045801	0.487462
	C2403	C	0.817056	0.085070	0.506427
	C2404	C	0.799912	0.051686	0.484877
	N2405	N	0.794220	0.068329	0.492904
	O2406	O	0.785441	0.036686	0.475433
	O2407	O	0.818329	0.101873	0.516990
	C2408	C	0.905804	0.088005	0.522848
	C2409	C	0.880650	0.105991	0.526708
	N2410	N	0.906019	0.106455	0.532221
	O2411	O	0.874413	0.118651	0.530106
	O2412	O	0.924094	0.083874	0.523811
	C2413	C	0.834273	0.024092	0.473606
	C2414	C	0.879339	0.040185	0.492860
	N2415	N	0.858155	0.021974	0.478365
	O2416	O	0.901541	0.042218	0.499146
	O2417	O	0.812958	0.010289	0.460525
	F2418	F	0.174205	0.027314	0.525294
	C2419	C	0.183784	0.039404	0.560599
	C2420	C	0.173369	0.023474	0.554863
	F2421	F	0.153984	-0.003805	0.514125
	C2422	C	0.182270	0.035578	0.590848
	C2423	C	0.203837	0.064172	0.633791
	F2424	F	0.214051	0.076191	0.669265
	C2425	C	0.214298	0.080157	0.639502
	F2426	F	0.234468	0.107428	0.680367
	C2427	C	0.203482	0.067877	0.602555
	F2428	F	0.192714	0.040599	0.449011
	C2429	C	0.222218	0.051114	0.468265
	C2430	C	0.225691	0.038638	0.440915
	F2431	F	0.199455	0.016791	0.395701
	C2432	C	0.256464	0.049056	0.460684
	C2433	C	0.283108	0.070629	0.507612
	F2434	F	0.312671	0.079798	0.526692
	C2435	C	0.279371	0.082900	0.534757
	F2436	F	0.305047	0.102970	0.579122
	C2437	C	0.248889	0.074389	0.515748
	F2438	F	0.892693	0.226387	0.382207
	C2439	C	0.888667	0.242041	0.407498
	C2440	C	0.863148	0.241235	0.390335
	F2441	F	0.842070	0.223967	0.347841
	C2442	C	0.859623	0.258540	0.417319
	C2443	C	0.881143	0.275206	0.460652
	F2444	F	0.879470	0.292685	0.488404
	C2445	C	0.904763	0.274195	0.475949
	F2446	F	0.922735	0.288108	0.515238
	C2447	C	0.910483	0.259225	0.451291
	F2448	F	0.134633	0.347726	0.616314
	C2449	C	0.116290	0.332774	0.576026
	C2450	C	0.130719	0.337717	0.569692
	F2451	F	0.162896	0.356681	0.603390
	C2452	C	0.111779	0.323093	0.528429
	C2453	C	0.078174	0.304290	0.494807
	F2454	F	0.058990	0.292165	0.457103
	C2455	C	0.064026	0.297691	0.499481
	F2456	F	0.032005	0.277104	0.463936
	C2457	C	0.082708	0.312336	0.540648
	F2458	F	0.876397	0.038677	0.543333
	C2459	C	0.870026	0.015749	0.509119
	C2460	C	0.869990	-0.000135	0.505100
	F2461	F	0.872950	0.006073	0.532204
	C2462	C	0.866068	-0.022944	0.472312
	C2463	C	0.860672	-0.030187	0.442032
	F2464	F	0.857385	-0.051677	0.410773
	C2465	C	0.858083	-0.015595	0.443570
	F2466	F	0.850623	-0.024111	0.412204
	C2467	C	0.862919	0.007698	0.477386
	F2468	F	0.807953	0.112666	0.568375
	C2469	C	0.777080	0.089572	0.527376
	C2470	C	0.752922	0.087665	0.523752
	F2471	F	0.760878	0.109202	0.561245
	C2472	C	0.720427	0.063707	0.481311
	C2473	C	0.712838	0.041545	0.442701
	F2474	F	0.682006	0.018227	0.401937
	C2475	C	0.736927	0.043746	0.446199
	F2476	F	0.728941	0.022765	0.408498
	C2477	C	0.769504	0.067698	0.488725
	C2478	C	0.118793	-0.015914	0.538836
	C2479	C	0.137245	-0.023758	0.537450
	C2480	C	0.125860	-0.048246	0.513866
	C2481	C	0.095848	-0.064771	0.491285
	C2482	C	0.077605	-0.056672	0.493365
	C2483	C	0.088922	-0.032315	0.516999
	C2484	C	0.167883	-0.002118	0.564181
	C2485	C	0.137399	0.011371	0.567648
	N2486	N	0.166159	0.018189	0.580641
	O2487	O	0.130224	0.025350	0.578115
	O2488	O	0.189927	-0.001309	0.570856
	C2489	C	0.090238	-0.088735	0.470965
	C2490	C	0.140278	-0.061647	0.507654
	N2491	N	0.117397	-0.086025	0.481290
	O2492	O	0.165643	-0.054328	0.521356
	O2493	O	0.067599	-0.107168	0.449872
	C2494	C	0.067132	-0.026915	0.519783
	C2495	C	0.046632	-0.069100	0.476256
	N2496	N	0.042840	-0.049425	0.495927
	O2497	O	0.027799	-0.091162	0.450937
	O2498	O	0.069424	-0.007387	0.539473
	C2499	C	0.309527	0.024057	0.391873
	C2500	C	0.300016	0.018393	0.400773
	C2501	C	0.282057	0.024925	0.407904
	C2502	C	0.272133	0.035663	0.403542
	C2503	C	0.280164	0.040076	0.392139
	C2504	C	0.299525	0.035047	0.387608
	C2505	C	0.314527	0.007634	0.404853
	C2506	C	0.333098	0.019357	0.394171
	N2507	N	0.335397	0.009793	0.402686
	O2508	O	0.348413	0.023283	0.391124
	O2509	O	0.310278	-0.001171	0.409384
	C2510	C	0.258584	0.045010	0.420836
	C2511	C	0.272777	0.024875	0.424450
	N2512	N	0.260510	0.038669	0.434151
	O2513	O	0.275440	0.016098	0.430378
	O2514	O	0.249527	0.057142	0.426131
	C2515	C	0.307228	0.044948	0.381201
	C2516	C	0.272953	0.051459	0.385610
	N2517	N	0.290945	0.054974	0.380960
	O2518	O	0.255113	0.056349	0.383365
	O2519	O	0.324017	0.045225	0.377479
	C2520	C	0.772239	0.285706	0.403691
	C2521	C	0.781464	0.274357	0.406991
	C2522	C	0.799369	0.267766	0.399764
	C2523	C	0.809446	0.274003	0.391864
	C2524	C	0.798677	0.284233	0.386248
	C2525	C	0.779348	0.289297	0.390836
	C2526	C	0.772787	0.274832	0.424451
	C2527	C	0.758561	0.294940	0.420784
	N2528	N	0.760664	0.288743	0.434345
	O2529	O	0.749340	0.306943	0.425851
	O2530	O	0.775730	0.266296	0.430808
	C2531	C	0.832840	0.269129	0.393836
	C2532	C	0.814369	0.257478	0.404669
	N2533	N	0.835267	0.259687	0.402561
	O2534	O	0.810404	0.248928	0.409672
	O2535	O	0.847976	0.272879	0.390464
	C2536	C	0.772663	0.301178	0.385189
	C2537	C	0.806883	0.294598	0.380695
	N2538	N	0.790756	0.304766	0.380702
	O2539	O	0.823875	0.295059	0.377328
	O2540	O	0.755066	0.306321	0.383360
	C2541	C	0.125808	0.332207	0.471939
	C2542	C	0.142428	0.329503	0.462761
	C2543	C	0.160694	0.322584	0.469321
	C2544	C	0.161899	0.317681	0.483999
	C2545	C	0.145964	0.321375	0.494910
	C2546	C	0.128653	0.329119	0.489652
	C2547	C	0.139084	0.337639	0.450648
	C2548	C	0.110088	0.341251	0.464365
	N2549	N	0.119895	0.345018	0.453061
	O2550	O	0.092828	0.345283	0.467191
	O2551	O	0.150673	0.339150	0.442090
	C2552	C	0.184374	0.311585	0.488712
	C2553	C	0.181717	0.319886	0.464060
	N2554	N	0.195747	0.313670	0.476725
	O2555	O	0.187273	0.322829	0.452582
	O2556	O	0.192170	0.306124	0.500222
	C2557	C	0.115786	0.333255	0.506042
	C2558	C	0.142184	0.318039	0.511430
	N2559	N	0.124665	0.326390	0.518974
	O2560	O	0.150765	0.309335	0.516515
	O2561	O	0.100965	0.341111	0.508737
	C2562	C	0.922732	-0.049878	0.499515
	C2563	C	0.914888	-0.071308	0.483280
	C2564	C	0.884058	-0.089296	0.458094
	C2565	C	0.861251	-0.086234	0.448230
	C2566	C	0.868878	-0.065317	0.462486
	C2567	C	0.899731	-0.047407	0.488178
	C2568	C	0.942718	-0.071019	0.493892
	C2569	C	0.956988	-0.032652	0.527238
	N2570	N	0.966598	-0.047877	0.518325
	O2571	O	0.973875	-0.010107	0.552820
	O2572	O	0.945392	-0.086885	0.483462
	C2573	C	0.831431	-0.108205	0.422208
	C2574	C	0.869555	-0.113323	0.438074
	N2575	N	0.838067	-0.123848	0.417179
	O2576	O	0.881457	-0.122464	0.439290
	O2577	O	0.806548	-0.112487	0.408067
	C2578	C	0.902063	-0.028799	0.495728
	C2579	C	0.850715	-0.056804	0.455685
	N2580	N	0.871810	-0.035813	0.474142
	O2581	O	0.824642	-0.064332	0.439792
	O2582	O	0.924520	-0.011196	0.515251
	C2583	C	0.659795	0.071770	0.467688
	C2584	C	0.661660	0.067560	0.483497
	C2585	C	0.645186	0.070710	0.493522
	C2586	C	0.627411	0.077992	0.487517
	C2587	C	0.625358	0.081843	0.471045
	C2588	C	0.641434	0.078595	0.460969
	C2589	C	0.684160	0.061498	0.488269
	C2590	C	0.681311	0.069588	0.463276
	N2591	N	0.695600	0.063654	0.476403
	O2592	O	0.686986	0.072656	0.452004
	O2593	O	0.691972	0.056056	0.499811
	C2594	C	0.614960	0.082534	0.504563
	C2595	C	0.641507	0.067460	0.510190
	N2596	N	0.623957	0.075781	0.517680
	O2597	O	0.650171	0.058832	0.515406
	O2598	O	0.600326	0.090562	0.507545
	C2599	C	0.638529	0.087161	0.449583
	C2600	C	0.609277	0.090522	0.462862
	N2601	N	0.619286	0.094491	0.451906
	O2602	O	0.591665	0.094198	0.465084
	O2603	O	0.650435	0.088982	0.441563
	F2604	F	-0.044187	-0.051221	0.469867
	C2605	C	-0.019880	-0.049702	0.488849
	C2606	C	-0.002108	-0.051146	0.481620
	F2607	F	-0.010002	-0.054824	0.455077
	C2608	C	0.023893	-0.048908	0.501783
	C2609	C	0.031150	-0.045877	0.528390
	F2610	F	0.056113	-0.043699	0.547947
	C2611	C	0.013120	-0.044723	0.535253
	F2612	F	0.021063	-0.041115	0.561715
	C2613	C	-0.013086	-0.047180	0.514756
	F2614	F	0.097571	0.364097	0.401978
	C2615	C	0.109206	0.371934	0.434059
	C2616	C	0.106947	0.353867	0.425544
	F2617	F	0.091319	0.328080	0.384231
	C2618	C	0.120959	0.362557	0.460060
	C2619	C	0.137899	0.389826	0.503484
	F2620	F	0.153032	0.399034	0.537749
	C2621	C	0.138697	0.407391	0.511235
	F2622	F	0.153837	0.433069	0.552358
	C2623	C	0.123133	0.398216	0.475962
	F2624	F	0.379470	0.042744	0.488488
	C2625	C	0.381143	0.025242	0.460750
	C2626	C	0.404822	0.024305	0.476156
	F2627	F	0.422751	0.038225	0.515444
	C2628	C	0.410614	0.009384	0.451585
	C2629	C	0.388893	-0.007745	0.407843
	F2630	F	0.392910	-0.023438	0.382560
	C2631	C	0.363334	-0.008611	0.390585
	F2632	F	0.342314	-0.025862	0.348109
	C2633	C	0.359740	0.008649	0.417487
	F2634	F	0.275212	0.034445	0.312549
	C2635	C	0.291810	0.061188	0.352637
	C2636	C	0.304013	0.078872	0.361813
	F2637	F	0.300739	0.069227	0.331612
	C2638	C	0.320069	0.106691	0.402574
	C2639	C	0.322326	0.115972	0.432832
	F2640	F	0.335563	0.142023	0.470446
	C2641	C	0.311805	0.098666	0.424860
	F2642	F	0.315841	0.108495	0.455630
	C2643	C	0.297428	0.071217	0.385402
	F2644	F	0.836112	0.392112	0.471047
	C2645	C	0.822565	0.365990	0.433153
	C2646	C	0.811987	0.348625	0.425058
	F2647	F	0.816100	0.358416	0.455844
	C2648	C	0.797430	0.321140	0.385421
	C2649	C	0.791848	0.311179	0.352729
	F2650	F	0.775024	0.284409	0.312457
	C2651	C	0.804095	0.328915	0.362013
	F2652	F	0.800777	0.319310	0.331815
	C2653	C	0.820275	0.356750	0.402904
	F2654	F	0.699656	0.266916	0.396017
	C2655	C	0.725919	0.288806	0.441245
	C2656	C	0.722482	0.301341	0.468646
	F2657	F	0.692988	0.290844	0.449428
	C2658	C	0.749178	0.324646	0.516139
	C2659	C	0.779657	0.333175	0.535127
	F2660	F	0.805334	0.353195	0.579462
	C2661	C	0.783358	0.320852	0.507931
	F2662	F	0.812892	0.329927	0.526940
	C2663	C	0.756678	0.299200	0.460965
	F2664	F	0.261112	0.359071	0.561312
	C2665	C	0.252973	0.337473	0.523662
	C2666	C	0.276985	0.339272	0.526994
	F2667	F	0.307896	0.362334	0.567867
	C2668	C	0.269225	0.317328	0.488186
	C2669	C	0.236602	0.293433	0.445783
	F2670	F	0.228452	0.272335	0.407960
	C2671	C	0.212657	0.291346	0.442572
	F2672	F	0.181806	0.268025	0.401973
	C2673	C	0.220436	0.313564	0.481352
	F2674	F	0.652219	0.148326	0.536709
	C2675	C	0.637455	0.139419	0.502824
	C2676	C	0.638388	0.157159	0.510961
	F2677	F	0.653428	0.182743	0.552132
	C2678	C	0.623101	0.148271	0.476043
	C2679	C	0.609207	0.122066	0.434063
	F2680	F	0.597963	0.114551	0.402418
	C2681	C	0.606815	0.103819	0.425156
	F2682	F	0.591299	0.078128	0.383801
	C2683	C	0.620542	0.112221	0.459304
	F2684	F	0.558315	0.041586	0.456077
	C2685	C	0.577658	0.053789	0.493870
	C2686	C	0.563686	0.047389	0.498887
	F2687	F	0.531680	0.026820	0.463490
	C2688	C	0.582527	0.062183	0.540212
	C2689	C	0.616075	0.082646	0.575474
	F2690	F	0.634576	0.097657	0.615837
	C2691	C	0.630333	0.087403	0.568821
	F2692	F	0.662493	0.106350	0.602378
	C2693	C	0.611238	0.072634	0.527406
	C2694	C	0.497232	0.007644	0.513587
	C2695	C	0.525640	0.015821	0.527056
	C2696	C	0.537857	0.031506	0.532790
	C2697	C	0.521686	0.039118	0.525517
	C2698	C	0.491604	0.028870	0.508107
	C2699	C	0.479497	0.013432	0.502528
	C2700	C	0.537377	0.004360	0.531698
	C2701	C	0.490398	-0.008631	0.510578
	N2702	N	0.515003	-0.010413	0.520878
	O2703	O	0.469223	-0.018064	0.502471
	O2704	O	0.560656	0.006350	0.542016
	C2705	C	0.540185	0.055810	0.534461
	C2706	C	0.566468	0.041922	0.544364
	N2707	N	0.566389	0.056215	0.544453
	O2708	O	0.585698	0.038716	0.550938
	O2709	O	0.535080	0.067014	0.533524
	C2710	C	0.445837	0.003436	0.479631
	C2711	C	0.467352	0.030985	0.492253
	N2712	N	0.439569	0.014013	0.473030
	O2713	O	0.469378	0.044107	0.494435
	O2714	O	0.426472	-0.011438	0.466881
	C2715	C	0.383760	0.160430	0.457314
	C2716	C	0.361256	0.163910	0.448400
	C2717	C	0.368785	0.184596	0.462123
	C2718	C	0.399530	0.202263	0.487337
	C2719	C	0.422866	0.200359	0.500028
	C2720	C	0.414809	0.178684	0.483197
	C2721	C	0.331270	0.141742	0.421889
	C2722	C	0.369346	0.136573	0.437687
	N2723	N	0.337864	0.126068	0.416807
	O2724	O	0.381297	0.127519	0.439126
	O2725	O	0.306313	0.137362	0.407489
	C2726	C	0.402049	0.221100	0.495383
	C2727	C	0.350706	0.193186	0.455440
	N2728	N	0.371855	0.214189	0.473952
	O2729	O	0.324662	0.185723	0.439629
	O2730	O	0.424572	0.238748	0.515044
	C2731	C	0.442593	0.178917	0.493695
	C2732	C	0.456981	0.217367	0.527238
	N2733	N	0.466494	0.202062	0.518151
	O2734	O	0.473863	0.239856	0.552663
	O2735	O	0.445225	0.163015	0.483183
	C2736	C	0.688660	0.354524	0.577169
	C2737	C	0.697818	0.357050	0.564681
	C2738	C	0.717260	0.350796	0.560915
	C2739	C	0.728039	0.343020	0.571193
	C2740	C	0.720831	0.342435	0.586994
	C2741	C	0.700368	0.347276	0.588592
	C2742	C	0.681078	0.364301	0.553486
	C2743	C	0.665448	0.359701	0.573743
	N2744	N	0.662145	0.365997	0.560038
	O2745	O	0.651165	0.358555	0.579980
	O2746	O	0.682559	0.368107	0.541122
	C2747	C	0.744783	0.334394	0.559313
	C2748	C	0.727123	0.347462	0.542061
	N2749	N	0.743794	0.337588	0.542133
	O2750	O	0.721014	0.350637	0.526909
	O2751	O	0.755470	0.324795	0.560649
	C2752	C	0.693570	0.341278	0.600388
	C2753	C	0.728645	0.334042	0.598871
	N2754	N	0.711004	0.333141	0.605632
	O2755	O	0.745955	0.328706	0.602257
	O2756	O	0.676439	0.342019	0.603961
	C2757	C	0.378168	0.324506	0.509678
	C2758	C	0.363089	0.335328	0.512439
	C2759	C	0.337153	0.326586	0.503483
	C2760	C	0.326634	0.306776	0.490816
	C2761	C	0.340661	0.294892	0.485535
	C2762	C	0.366789	0.304006	0.495677
	C2763	C	0.379998	0.355421	0.525474
	C2764	C	0.404880	0.337156	0.520968
	N2765	N	0.405274	0.355797	0.530770
	O2766	O	0.422877	0.332753	0.521296
	O2767	O	0.374059	0.368397	0.529553
	C2768	C	0.299486	0.301173	0.483942
	C2769	C	0.316498	0.334497	0.505343
	N2770	N	0.293815	0.317859	0.492091
	O2771	O	0.317890	0.351425	0.516203
	O2772	O	0.285023	0.286137	0.474448
	C2773	C	0.378395	0.289240	0.490747
	C2774	C	0.333486	0.273230	0.471790
	N2775	N	0.357342	0.271098	0.476449
	O2776	O	0.312277	0.259484	0.458887
	O2777	O	0.400695	0.291394	0.497241
	C2778	C	0.577569	0.193402	0.493253
	C2779	C	0.589323	0.218096	0.517864
	C2780	C	0.619214	0.234492	0.539728
	C2781	C	0.637273	0.226296	0.537375
	C2782	C	0.626128	0.202056	0.514494
	C2783	C	0.596282	0.185723	0.492389
	C2784	C	0.567259	0.223295	0.520060
	C2785	C	0.546724	0.181079	0.476446
	N2786	N	0.542894	0.200729	0.496043
	O2787	O	0.527964	0.159067	0.451292
	O2788	O	0.569437	0.242751	0.539534
	C2789	C	0.667995	0.247980	0.564277
	C2790	C	0.637642	0.261593	0.568014
	N2791	N	0.666313	0.268311	0.580781
	O2792	O	0.630425	0.275531	0.578322
	O2793	O	0.690037	0.248774	0.570966
	C2794	C	0.590394	0.161522	0.471432
	C2795	C	0.640490	0.188608	0.508206
	N2796	N	0.617537	0.164201	0.481734
	O2797	O	0.665866	0.195917	0.521937
	O2798	O	0.567598	0.142962	0.449970
	F2799	F	0.471054	-0.096668	0.434278
	C2800	C	0.494141	-0.069345	0.474612
	C2801	C	0.493230	-0.054354	0.476700
	F2802	F	0.469662	-0.067494	0.438139
	C2803	C	0.516543	-0.025683	0.518639
	C2804	C	0.541946	-0.012581	0.558075
	F2805	F	0.564987	0.014769	0.598607
	C2806	C	0.543552	-0.027673	0.555650
	F2807	F	0.568771	-0.014791	0.593468
	C2808	C	0.519071	-0.056170	0.514236
	F2809	F	0.357434	0.198035	0.410359
	C2810	C	0.360466	0.219441	0.441284
	C2811	C	0.357649	0.233794	0.442354
	F2812	F	0.350018	0.225026	0.410690
	C2813	C	0.362408	0.257097	0.475992
	C2814	C	0.369894	0.265510	0.508219
	F2815	F	0.376147	0.288441	0.542227
	C2816	C	0.370119	0.249879	0.504708
	F2817	F	0.373493	0.256474	0.532368
	C2818	C	0.366109	0.226977	0.471944
	F2819	F	0.489976	0.195242	0.455066
	C2820	C	0.497861	0.198905	0.481589
	C2821	C	0.480024	0.200258	0.488697
	F2822	F	0.455651	0.198655	0.469605
	C2823	C	0.486818	0.202774	0.514598
	C2824	C	0.513106	0.205347	0.535250
	F2825	F	0.520935	0.208795	0.561496
	C2826	C	0.531196	0.204277	0.528499
	F2827	F	0.556109	0.206385	0.547961
	C2828	C	0.523914	0.201211	0.501844
	F2829	F	0.670555	0.408671	0.629882
	C2830	C	0.647028	0.394004	0.589711
	C2831	C	0.626915	0.399902	0.583910
	F2832	F	0.631777	0.420166	0.618666
	C2833	C	0.601920	0.385072	0.542490
	C2834	C	0.600072	0.366179	0.509073
	F2835	F	0.579361	0.354314	0.471610
	C2836	C	0.619481	0.359596	0.514229
	F2837	F	0.615465	0.340173	0.480110
	C2838	C	0.642993	0.373053	0.554456
	F2839	F	0.714097	0.326302	0.669358
	C2840	C	0.704010	0.314292	0.633944
	C2841	C	0.714410	0.330279	0.639635
	F2842	F	0.734506	0.357546	0.680469
	C2843	C	0.703641	0.318007	0.602713
	C2844	C	0.683941	0.289533	0.560752
	F2845	F	0.674517	0.277463	0.525531
	C2846	C	0.673578	0.273602	0.555034
	F2847	F	0.654260	0.246329	0.514327
	C2848	C	0.682431	0.285698	0.590990
	F2849	F	0.378749	0.331793	0.456190
	C2850	C	0.410524	0.353345	0.495419
	C2851	C	0.429931	0.360793	0.496032
	F2852	F	0.416449	0.346214	0.457363
	C2853	C	0.463269	0.382881	0.535980
	C2854	C	0.476480	0.398111	0.576160
	F2855	F	0.508165	0.419790	0.615338
	C2856	C	0.456994	0.390803	0.575718
	F2857	F	0.469967	0.405950	0.614641
	C2858	C	0.423970	0.367560	0.534847
	C2859	C	0.539115	0.391032	0.529450
	C2860	C	0.547476	0.400089	0.524041
	C2861	C	0.533331	0.409367	0.518553
	C2862	C	0.512062	0.410427	0.520391
	C2863	C	0.503504	0.401077	0.525505
	C2864	C	0.516834	0.391344	0.529896
	C2865	C	0.573094	0.398850	0.527786
	C2866	C	0.557442	0.382073	0.533824
	N2867	N	0.578295	0.388046	0.534119
	O2868	O	0.555739	0.371596	0.536401
	O2869	O	0.587463	0.405538	0.526480
	C2870	C	0.502712	0.423061	0.517233
	C2871	C	0.537972	0.421091	0.513551
	N2872	N	0.519015	0.429101	0.513241
	O2873	O	0.554082	0.423806	0.510402
	O2874	O	0.485968	0.428603	0.519508
	C2875	C	0.502563	0.382383	0.533841
	C2876	C	0.481518	0.399869	0.528553
	N2877	N	0.482237	0.388825	0.534262
	O2878	O	0.465747	0.406568	0.526455
	O2879	O	0.505926	0.371128	0.535043
	C2880	C	0.020928	0.236964	0.623045
	C2881	C	0.008834	0.221526	0.617474
	C2882	C	-0.021063	0.211549	0.600584
	C2883	C	-0.037725	0.218515	0.592082
	C2884	C	-0.025276	0.234526	0.598435
	C2885	C	0.003393	0.243064	0.612583
	C2886	C	0.033095	0.219417	0.633333
	C2887	C	0.054582	0.246947	0.645908
	N2888	N	0.060847	0.236344	0.652463
	O2889	O	0.073948	0.261830	0.658671
	O2890	O	0.031089	0.206322	0.631204
	C2891	C	-0.066226	0.208235	0.580777
	C2892	C	-0.039792	0.194533	0.591027
	N2893	N	-0.066124	0.193971	0.580743
	O2894	O	-0.034723	0.183276	0.591857
	O2895	O	-0.085418	0.211487	0.574292
	C2896	C	0.010000	0.259042	0.615027
	C2897	C	-0.037139	0.245834	0.593498
	N2898	N	-0.014722	0.260675	0.604438
	O2899	O	-0.060530	0.243697	0.582904
	O2900	O	0.031127	0.268410	0.623015
	F2901	F	0.077688	0.212255	0.610066
	C2902	C	0.095623	0.226112	0.649298
	C2903	C	0.119148	0.224996	0.664468
	F2904	F	0.120827	0.207543	0.636708
	C2905	C	0.140588	0.241553	0.707703
	C2906	C	0.137029	0.258808	0.734669
	F2907	F	0.158063	0.276009	0.777108
	C2908	C	0.111492	0.257987	0.717512
	F2909	F	0.107480	0.273642	0.742824
	C2910	C	0.089789	0.240944	0.673843
	F2911	F	0.029033	0.346858	0.690835
	C2912	C	0.005956	0.319536	0.650531
	C2913	C	0.006980	0.304569	0.648483
	F2914	F	0.030470	0.317755	0.687111
	C2915	C	-0.016306	0.275896	0.606578
	C2916	C	-0.041648	0.262748	0.567072
	F2917	F	-0.064716	0.235402	0.526588
	C2918	C	-0.043285	0.277804	0.569421
	F2919	F	-0.068536	0.264890	0.531576
	C2920	C	-0.018915	0.306317	0.610843
	F2921	F	0.968318	0.223210	0.661524
	C2922	C	0.936303	0.202617	0.626000
	C2923	C	0.922218	0.195966	0.630666
	F2924	F	0.941457	0.208117	0.668400
	C2925	C	0.888620	0.177114	0.597029
	C2926	C	0.869649	0.162437	0.555714
	F2927	F	0.837481	0.143437	0.522010
	C2928	C	0.884045	0.167338	0.549312
	F2929	F	0.865668	0.152399	0.509030
	C2930	C	0.917602	0.187871	0.584740
	C2931	C	0.190590	0.225922	0.732914
	C2932	C	0.200736	0.232210	0.725115
	C2933	C	0.218618	0.225594	0.717853
	C2934	C	0.227734	0.214152	0.720991
	C2935	C	0.220570	0.210517	0.733765
	C2936	C	0.201277	0.215622	0.738410
	C2937	C	0.185827	0.242578	0.720342
	C2938	C	0.167228	0.230832	0.730983
	N2939	N	0.164891	0.240348	0.722388
	O2940	O	0.152048	0.227053	0.734287
	O2941	O	0.189883	0.251200	0.715475
	C2942	C	0.241367	0.204885	0.703835
	C2943	C	0.227368	0.225184	0.700504
	N2944	N	0.239413	0.211211	0.690495
	O2945	O	0.224530	0.233809	0.694304
	O2946	O	0.250454	0.192774	0.698573
	C2947	C	0.193013	0.205219	0.743886
	C2948	C	0.227160	0.198555	0.739267
	N2949	N	0.209077	0.194994	0.743787
	O2950	O	0.244675	0.193328	0.740960
	O2951	O	0.176043	0.204788	0.747296
	C2952	C	-0.047892	0.349555	0.600149
	C2953	C	-0.039041	0.359160	0.595707
	C2954	C	-0.016852	0.358768	0.595092
	C2955	C	-0.004049	0.348485	0.598477
	C2956	C	-0.011841	0.339874	0.604942
	C2957	C	-0.033652	0.340364	0.605779
	C2958	C	-0.057599	0.367880	0.590918
	C2959	C	-0.073278	0.351039	0.596861
	N2960	N	-0.078451	0.361887	0.590608
	O2961	O	-0.087536	0.344460	0.598372
	O2962	O	-0.056027	0.378238	0.588118
	C2963	C	0.018270	0.350057	0.596052
	C2964	C	-0.003036	0.367300	0.590342
	N2965	N	0.017364	0.360935	0.590044
	O2966	O	-0.006760	0.378217	0.588510
	O2967	O	0.034387	0.343708	0.598757
	C2968	C	-0.037876	0.329028	0.611494
	C2969	C	-0.002759	0.326951	0.607562
	N2970	N	-0.018916	0.321017	0.611781
	O2971	O	0.013733	0.321177	0.604831
	O2972	O	-0.053724	0.326551	0.615100
	C2973	C	0.839666	0.177672	0.656131
	C2974	C	0.838445	0.182532	0.641391
	C2975	C	0.854888	0.179326	0.631305
	C2976	C	0.871968	0.171367	0.636234
	C2977	C	0.874782	0.168284	0.653945
	C2978	C	0.858410	0.171261	0.663546
	C2979	C	0.815668	0.188303	0.636120
	C2980	C	0.818376	0.180109	0.660933
	N2981	N	0.804147	0.186086	0.647868
	O2982	O	0.812785	0.177160	0.672384
	O2983	O	0.807755	0.193619	0.624371
	C2984	C	0.884745	0.167117	0.619688
	C2985	C	0.858236	0.182212	0.614056
	N2986	N	0.875772	0.173865	0.606559
	O2987	O	0.849393	0.190654	0.608511
	O2988	O	0.899581	0.159275	0.617035
	C2989	C	0.861225	0.162640	0.674833
	C2990	C	0.890326	0.159085	0.661277
	N2991	N	0.880341	0.155187	0.672324
	O2992	O	0.907577	0.155031	0.658448
	O2993	O	0.849364	0.160892	0.682954
	F2994	F	0.183349	0.141243	0.668390
	C2995	C	0.187719	0.151116	0.699382
	C2996	C	0.177024	0.133749	0.691245
	F2997	F	0.163381	0.107599	0.653303
	C2998	C	0.179564	0.143087	0.721718
	C2999	C	0.195901	0.170957	0.762692
	F3000	F	0.199383	0.180631	0.793035
	C3001	C	0.208129	0.188657	0.771906
	F3002	F	0.225083	0.215452	0.812236
	C3003	C	0.202389	0.178631	0.739081
	F3004	F	0.187244	0.170136	0.597992
	C3005	C	0.216787	0.179245	0.617021
	C3006	C	0.220495	0.166906	0.589827
	F3007	F	0.194830	0.146906	0.545502
	C3008	C	0.250970	0.175411	0.608813
	C3009	C	0.277658	0.198672	0.656294
	F3010	F	0.307165	0.209170	0.675545
	C3011	C	0.274198	0.211141	0.683652
	F3012	F	0.300454	0.233037	0.728885
	C3013	C	0.243439	0.200803	0.663936
	F3014	F	0.867951	0.329735	0.506071
	C3015	C	0.872883	0.350035	0.540889
	C3016	C	0.852932	0.356084	0.535260
	F3017	F	0.829286	0.341344	0.495032
	C3018	C	0.857055	0.377087	0.570594
	C3019	C	0.880612	0.390555	0.610828
	F3020	F	0.884731	0.410044	0.645040
	C3021	C	0.899960	0.383910	0.615892
	F3022	F	0.920742	0.395807	0.653386
	C3023	C	0.897977	0.364921	0.582348
	F3024	F	0.082994	0.404021	0.667281
	C3025	C	0.069638	0.389189	0.628475
	C3026	C	0.089060	0.396706	0.629168
	F3027	F	0.120782	0.418406	0.668507
	C3028	C	0.075728	0.382243	0.589592
	C3029	C	0.042785	0.358828	0.548616
	F3030	F	0.029933	0.343506	0.509624
	C3031	C	0.023253	0.351523	0.548131
	F3032	F	-0.008371	0.329684	0.508838
	C3033	C	0.036357	0.366921	0.588387
	F3034	F	0.908787	0.171991	0.740979
	C3035	C	0.893060	0.146191	0.699594
	C3036	C	0.890844	0.128105	0.691029
	F3037	F	0.902372	0.135866	0.723004
	C3038	C	0.876817	0.101802	0.649045
	C3039	C	0.861320	0.092695	0.613856
	F3040	F	0.846149	0.067023	0.572696
	C3041	C	0.862217	0.110324	0.621734
	F3042	F	0.847173	0.101198	0.587571
	C3043	C	0.879171	0.137580	0.665188
	F3044	F	0.817836	0.231616	0.722359
	C3045	C	0.787002	0.208282	0.681672
	C3046	C	0.762984	0.206103	0.678309
	F3047	F	0.771024	0.227166	0.716040
	C3048	C	0.730390	0.182169	0.635835
	C3049	C	0.722742	0.160258	0.597125
	F3050	F	0.691851	0.137184	0.556173
	C3051	C	0.746851	0.162099	0.600651
	F3052	F	0.738816	0.140560	0.563082
	C3053	C	0.779350	0.186072	0.643017
	C3054	C	0.116008	0.089484	0.667304
	C3055	C	0.138785	0.086379	0.677080
	C3056	C	0.131323	0.065732	0.663443
	C3057	C	0.100378	0.047680	0.637413
	C3058	C	0.077406	0.050191	0.626160
	C3059	C	0.085397	0.071808	0.642855
	C3060	C	0.168497	0.108182	0.702723
	C3061	C	0.130425	0.113369	0.686995
	N3062	N	0.161823	0.123760	0.707596
	O3063	O	0.118523	0.122502	0.685751
	O3064	O	0.193336	0.112402	0.716731
	C3065	C	0.097950	0.028940	0.629585
	C3066	C	0.149247	0.056856	0.669450
	N3067	N	0.128135	0.035830	0.650925
	O3068	O	0.175168	0.064174	0.684883
	O3069	O	0.075488	0.011350	0.610076
	C3070	C	0.057311	0.071215	0.631488
	C3071	C	0.043090	0.032876	0.598211
	N3072	N	0.033406	0.048036	0.606968
	O3073	O	0.026205	0.010306	0.572564
	O3074	O	0.054485	0.086924	0.641521
	C3075	C	0.311034	0.145007	0.546991
	C3076	C	0.302622	0.143270	0.560764
	C3077	C	0.283156	0.149499	0.564475
	C3078	C	0.271618	0.156535	0.552980
	C3079	C	0.279518	0.157757	0.538257
	C3080	C	0.299307	0.152231	0.535522
	C3081	C	0.319200	0.135869	0.571720
	C3082	C	0.334453	0.140048	0.550788
	N3083	N	0.337973	0.133994	0.564893
	O3084	O	0.348694	0.141146	0.544474
	O3085	O	0.317733	0.132104	0.584143
	C3086	C	0.255326	0.165592	0.565541
	C3087	C	0.273021	0.152596	0.582922
	N3088	N	0.256343	0.162455	0.582807
	O3089	O	0.278973	0.149293	0.597868
	O3090	O	0.244897	0.175397	0.564535
	C3091	C	0.306352	0.158468	0.524136
	C3092	C	0.271248	0.165676	0.525586
	N3093	N	0.288860	0.166541	0.518771
	O3094	O	0.253704	0.170765	0.521780
	O3095	O	0.323678	0.157921	0.520909
	C3096	C	0.771969	0.407063	0.553702
	C3097	C	0.782828	0.399385	0.564151
	C3098	C	0.802250	0.393106	0.560365
	C3099	C	0.811265	0.395471	0.547621
	C3100	C	0.799113	0.402241	0.535402
	C3101	C	0.779005	0.407450	0.537597
	C3102	C	0.773131	0.402902	0.583276
	C3103	C	0.755395	0.415861	0.565833
	N3104	N	0.756472	0.412781	0.583190
	O3105	O	0.744756	0.425487	0.564524
	O3106	O	0.779337	0.399842	0.598609
	C3107	C	0.834486	0.390304	0.551073
	C3108	C	0.819123	0.386005	0.571812
	N3109	N	0.837955	0.384194	0.565083
	O3110	O	0.817780	0.382357	0.584430
	O3111	O	0.848661	0.391328	0.544638
	C3112	C	0.771161	0.415791	0.525631
	C3113	C	0.806213	0.408522	0.524097
	N3114	N	0.788810	0.416681	0.518873
	O3115	O	0.823506	0.407933	0.520808
	O3116	O	0.753824	0.421096	0.522178
	C3117	C	0.132289	0.445089	0.627279
	C3118	C	0.158800	0.454566	0.638253
	C3119	C	0.173308	0.443127	0.633992
	C3120	C	0.162338	0.422911	0.620407
	C3121	C	0.136580	0.414352	0.611834
	C3122	C	0.121307	0.424984	0.614160
	C3123	C	0.166037	0.476275	0.652107
	C3124	C	0.120836	0.460000	0.632518
	N3125	N	0.142057	0.478286	0.647155
	O3126	O	0.098507	0.457825	0.625954
	O3127	O	0.187382	0.490145	0.665306
	C3128	C	0.183476	0.415445	0.619561
	C3129	C	0.200406	0.448676	0.640758
	N3130	N	0.206206	0.432122	0.632903
	O3131	O	0.214765	0.463600	0.650016
	O3132	O	0.182342	0.398750	0.609236
	C3133	C	0.094592	0.412351	0.602883
	C3134	C	0.119790	0.394402	0.599099
	N3135	N	0.094404	0.393925	0.593556
	O3136	O	0.125902	0.381617	0.595439
	O3137	O	0.076446	0.416619	0.602230
	C3138	C	0.922445	0.056816	0.632014
	C3139	C	0.911112	0.032441	0.608325
	C3140	C	0.881187	0.015987	0.586345
	C3141	C	0.862719	0.023816	0.587695
	C3142	C	0.874312	0.048504	0.611849
	C3143	C	0.904190	0.064901	0.634070
	C3144	C	0.932914	0.027056	0.605555
	C3145	C	0.953398	0.069241	0.649085
	N3146	N	0.957184	0.049562	0.629387
	O3147	O	0.972228	0.091306	0.674412
	O3148	O	0.930649	0.007542	0.585898
	C3149	C	0.832023	0.002116	0.560804
	C3150	C	0.862485	-0.011388	0.557266
	N3151	N	0.833689	-0.018248	0.544181
	O3152	O	0.869618	-0.025406	0.546672
	O3153	O	0.809986	0.001312	0.554149
	C3154	C	0.909752	0.088813	0.654249
	C3155	C	0.859625	0.061644	0.617333
	N3156	N	0.882493	0.086004	0.643649
	O3157	O	0.834101	0.054167	0.603198
	O3158	O	0.932433	0.107282	0.675444
	C3159	C	0.672885	0.192644	0.632946
	C3160	C	0.662423	0.172918	0.620460
	C3161	C	0.636568	0.164279	0.611690
	C3162	C	0.621536	0.175144	0.614521
	C3163	C	0.632850	0.195554	0.628329
	C3164	C	0.658618	0.204303	0.637686
	C3165	C	0.683120	0.165040	0.618716
	C3166	C	0.699974	0.198171	0.639692
	N3167	N	0.705733	0.181585	0.631782
	O3168	O	0.714331	0.213077	0.648922
	O3169	O	0.681799	0.148192	0.608046
	C3170	C	0.595023	0.162711	0.603679
	C3171	C	0.619790	0.144341	0.598983
	N3172	N	0.594652	0.144111	0.593971
	O3173	O	0.625726	0.131373	0.594928
	O3174	O	0.577142	0.167229	0.603574
	C3175	C	0.666160	0.226282	0.652157
	C3176	C	0.621380	0.210445	0.633514
	N3177	N	0.642477	0.228599	0.647862
	O3178	O	0.599141	0.208365	0.627154
	O3179	O	0.687488	0.240105	0.665277
	F3180	F	-0.056080	0.043889	0.577426
	C3181	C	-0.031148	0.046019	0.596909
	C3182	C	-0.013177	0.044798	0.589941
	F3183	F	-0.021069	0.041281	0.563598
	C3184	C	0.013082	0.047325	0.610524
	C3185	C	0.019906	0.049870	0.636468
	F3186	F	0.044265	0.051455	0.655537
	C3187	C	0.002091	0.051240	0.643609
	F3188	F	0.010080	0.055030	0.670306
	C3189	C	-0.023882	0.049047	0.623515
	F3190	F	0.127065	0.493951	0.592947
	C3191	C	0.130096	0.500226	0.620144
	C3192	C	0.130002	0.484342	0.616130
	F3193	F	0.123783	0.461470	0.582069
	C3194	C	0.137200	0.492478	0.647980
	C3195	C	0.141952	0.515739	0.681699
	F3196	F	0.149415	0.524293	0.713100
	C3197	C	0.139267	0.530252	0.683089
	F3198	F	0.142430	0.551689	0.714209
	C3199	C	0.133886	0.522978	0.652787
	F3200	F	0.384627	0.159861	0.644889
	C3201	C	0.380569	0.140382	0.610741
	C3202	C	0.400026	0.133849	0.615983
	F3203	F	0.420715	0.145723	0.653455
	C3204	C	0.398228	0.114978	0.582620
	C3205	C	0.373277	0.100149	0.541195
	F3206	F	0.368463	0.079900	0.506487
	C3207	C	0.353190	0.106061	0.535367
	F3208	F	0.329609	0.091312	0.495124
	C3209	C	0.357144	0.126966	0.570547
	F3210	F	0.265342	0.142065	0.443858
	C3211	C	0.285339	0.169329	0.484630
	C3212	C	0.295801	0.185292	0.490303
	F3213	F	0.285616	0.173251	0.454824
	C3214	C	0.317305	0.213885	0.533201
	C3215	C	0.326171	0.226006	0.569184
	F3216	F	0.345454	0.253279	0.609858
	C3217	C	0.315855	0.210106	0.563534
	F3218	F	0.325306	0.222207	0.598791
	C3219	C	0.296179	0.181634	0.521607
	F3220	F	0.845764	0.503599	0.610528
	C3221	C	0.826324	0.476321	0.569714
	C3222	C	0.815994	0.460341	0.563926
	F3223	F	0.825464	0.472362	0.599130
	C3224	C	0.796246	0.431868	0.521899
	C3225	C	0.785487	0.419655	0.485029
	F3226	F	0.765329	0.392390	0.444126
	C3227	C	0.795991	0.435702	0.490857
	F3228	F	0.785846	0.423748	0.455463
	C3229	C	0.817529	0.464291	0.533835
	F3230	F	0.694889	0.397099	0.545747
	C3231	C	0.720552	0.417132	0.590093
	C3232	C	0.716816	0.429430	0.617248
	F3233	F	0.687251	0.420252	0.598162
	C3234	C	0.743460	0.451012	0.664178
	C3235	C	0.774239	0.461460	0.683964
	F3236	F	0.800473	0.483299	0.729177
	C3237	C	0.777727	0.449041	0.656644
	F3238	F	0.807235	0.459534	0.675906
	C3239	C	0.751055	0.425712	0.609142
	F3240	F	0.271544	0.477639	0.717216
	C3241	C	0.263482	0.456611	0.679457
	C3242	C	0.287495	0.458773	0.682803
	F3243	F	0.318356	0.482052	0.723521
	C3244	C	0.279804	0.436598	0.644093
	C3245	C	0.247278	0.412696	0.601697
	F3246	F	0.239218	0.391142	0.564108
	C3247	C	0.223188	0.410870	0.598208
	F3248	F	0.192294	0.387796	0.557280
	C3249	C	0.230872	0.432723	0.636970
	F3250	F	0.649953	0.274683	0.713947
	C3251	C	0.642477	0.266121	0.682533
	C3252	C	0.639647	0.280561	0.683794
	F3253	F	0.642816	0.302001	0.714920
	C3254	C	0.634147	0.273231	0.653387
	C3255	C	0.630208	0.250404	0.620611
	F3256	F	0.627156	0.244106	0.593382
	C3257	C	0.630232	0.234580	0.616711
	F3258	F	0.623924	0.211667	0.582575
	C3259	C	0.637591	0.242793	0.648699
	F3260	F	0.530101	0.093850	0.510194
	C3261	C	0.543079	0.109080	0.549175
	C3262	C	0.523603	0.101850	0.548813
	F3263	F	0.491944	0.080093	0.509610
	C3264	C	0.536804	0.117218	0.589087
	C3265	C	0.570097	0.139452	0.629109
	F3266	F	0.583551	0.154202	0.667894
	C3267	C	0.589468	0.146884	0.629673
	F3268	F	0.621225	0.168494	0.668909
	C3269	C	0.576040	0.132453	0.590085
	C3270	C	0.466802	0.090654	0.606483
	C3271	C	0.488038	0.089575	0.604586
	C3272	C	0.496289	0.098643	0.598947
	C3273	C	0.483586	0.109029	0.595752
	C3274	C	0.461033	0.109041	0.595680
	C3275	C	0.452643	0.099929	0.601004
	C3276	C	0.497303	0.076841	0.607553
	C3277	C	0.462212	0.078955	0.611539
	N3278	N	0.481090	0.070865	0.611684
	O3279	O	0.446196	0.076316	0.614845
	O3280	O	0.513936	0.071199	0.605071
	C3281	C	0.497491	0.117657	0.591175
	C3282	C	0.518595	0.100203	0.596499
	N3283	N	0.517858	0.111262	0.590814
	O3284	O	0.534575	0.093711	0.598946
	O3285	O	0.493865	0.128676	0.589531
	C3286	C	0.426984	0.101118	0.597186
	C3287	C	0.442822	0.118125	0.591549
	N3288	N	0.421874	0.112033	0.591051
	O3289	O	0.444670	0.128771	0.589281
	O3290	O	0.412516	0.094311	0.598285
	C3291	C	0.380705	0.265330	0.585045
	C3292	C	0.362578	0.273459	0.587288
	C3293	C	0.373933	0.297930	0.610826
	C3294	C	0.403653	0.314179	0.632638
	C3295	C	0.422450	0.306583	0.631937
	C3296	C	0.410896	0.282016	0.607700
	C3297	C	0.331735	0.251629	0.560009
	C3298	C	0.362177	0.238107	0.556416
	N3299	N	0.333400	0.231267	0.543387
	O3300	O	0.369399	0.224166	0.546050
	O3301	O	0.309630	0.250768	0.553174
	C3302	C	0.409381	0.338259	0.653280
	C3303	C	0.359222	0.311048	0.616274
	N3304	N	0.382100	0.335426	0.642637
	O3305	O	0.333680	0.303547	0.602088
	O3306	O	0.432165	0.356845	0.674775
	C3307	C	0.432735	0.276674	0.604977
	C3308	C	0.453246	0.318911	0.648663
	N3309	N	0.457036	0.299236	0.628932
	O3310	O	0.471991	0.340935	0.673839
	O3311	O	0.430473	0.257154	0.585274
	C3312	C	0.690441	0.475886	0.732863
	C3313	C	0.700583	0.482202	0.725095
	C3314	C	0.718526	0.475656	0.717925
	C3315	C	0.727719	0.464265	0.721142
	C3316	C	0.720547	0.460595	0.733874
	C3317	C	0.701185	0.465622	0.738411
	C3318	C	0.685602	0.492516	0.720241
	C3319	C	0.667022	0.480731	0.730851
	N3320	N	0.664646	0.490236	0.722234
	O3321	O	0.651822	0.476907	0.734098
	O3322	O	0.689619	0.501130	0.715350
	C3323	C	0.741446	0.455094	0.704119
	C3324	C	0.727281	0.475282	0.700613
	N3325	N	0.739418	0.461384	0.690708
	O3326	O	0.724382	0.483881	0.694364
	O3327	O	0.750666	0.443083	0.699017
	C3328	C	0.692925	0.455190	0.743847
	C3329	C	0.727198	0.448670	0.739440
	N3330	N	0.709059	0.445028	0.743841
	O3331	O	0.744793	0.443526	0.741258
	O3332	O	0.675899	0.454690	0.747153
	C3333	C	0.372191	0.421661	0.636775
	C3334	C	0.354591	0.429127	0.631081
	C3335	C	0.338252	0.432400	0.641325
	C3336	C	0.339984	0.428033	0.656883
	C3337	C	0.357814	0.420660	0.662681
	C3338	C	0.374479	0.418009	0.653580
	C3339	C	0.358282	0.432406	0.614452
	C3340	C	0.384693	0.417191	0.619822
	N3341	N	0.375757	0.424019	0.606833
	O3342	O	0.399332	0.409167	0.616826
	O3343	O	0.349669	0.441088	0.609332
	C3344	C	0.318519	0.430262	0.661383
	C3345	C	0.316026	0.438753	0.637040
	N3346	N	0.304536	0.436535	0.648812
	O3347	O	0.308441	0.444444	0.625908
	O3348	O	0.312665	0.426993	0.672329
	C3349	C	0.389995	0.408754	0.660790
	C3350	C	0.360971	0.412324	0.674458
	N3351	N	0.380039	0.404830	0.671829
	O3352	O	0.349331	0.410749	0.682916
	O3353	O	0.407222	0.404693	0.657903
	C3354	C	0.577297	0.299898	0.625521
	C3355	C	0.585396	0.321688	0.642640
	C3356	C	0.616204	0.339652	0.667761
	C3357	C	0.638747	0.336215	0.676740
	C3358	C	0.631499	0.315893	0.663840
	C3359	C	0.600678	0.298045	0.638280
	C3360	C	0.557303	0.321081	0.631270
	C3361	C	0.543123	0.282764	0.598067
	N3362	N	0.533446	0.297932	0.606842
	O3363	O	0.526313	0.260280	0.572684
	O3364	O	0.554441	0.336762	0.641242
	C3365	C	0.668575	0.358207	0.702800
	C3366	C	0.630432	0.363307	0.686905
	N3367	N	0.661844	0.373730	0.707554
	O3368	O	0.618408	0.372282	0.685311
	O3369	O	0.693515	0.362571	0.717120
	C3370	C	0.598181	0.279160	0.630127
	C3371	C	0.649465	0.307076	0.669974
	N3372	N	0.628383	0.286082	0.651522
	O3373	O	0.675395	0.314409	0.685433
	O3374	O	0.575676	0.261474	0.610423
	F3375	F	0.434961	-0.014915	0.525992
	C3376	C	0.458031	0.012433	0.566573
	C3377	C	0.456536	0.027573	0.569083
	F3378	F	0.431322	0.014752	0.531336
	C3379	C	0.480982	0.056082	0.610582
	C3380	C	0.505828	0.069206	0.650167
	F3381	F	0.528879	0.096535	0.690571
	C3382	C	0.506701	0.054156	0.647961
	F3383	F	0.530102	0.067254	0.686506
	C3384	C	0.483365	0.025484	0.605968
	F3385	F	0.345811	0.316604	0.571884
	C3386	C	0.360902	0.342229	0.613042
	C3387	C	0.361880	0.359930	0.621075
	F3388	F	0.346860	0.350872	0.586987
	C3389	C	0.378848	0.387170	0.664576
	C3390	C	0.392791	0.395723	0.698931
	F3391	F	0.408416	0.421472	0.740301
	C3392	C	0.390506	0.377567	0.690214
	F3393	F	0.402019	0.385250	0.722103
	C3394	C	0.376461	0.351284	0.648181
	F3395	F	0.478987	0.291189	0.563486
	C3396	C	0.486859	0.294687	0.589801
	C3397	C	0.468843	0.295858	0.596692
	F3398	F	0.443916	0.293727	0.577200
	C3399	C	0.476047	0.298815	0.623199
	C3400	C	0.502101	0.301122	0.643453
	F3401	F	0.509960	0.304749	0.669927
	C3402	C	0.519991	0.299843	0.636446
	F3403	F	0.544318	0.301388	0.655465
	C3404	C	0.513133	0.297237	0.610420
	F3405	F	0.657731	0.525876	0.776828
	C3406	C	0.636734	0.508662	0.734382
	C3407	C	0.611109	0.507732	0.717083
	F3408	F	0.607088	0.523411	0.742369
	C3409	C	0.589352	0.490581	0.673321
	C3410	C	0.595137	0.475662	0.648737
	F3411	F	0.577208	0.461757	0.609464
	C3412	C	0.618786	0.474690	0.664096
	F3413	F	0.620514	0.457245	0.636405
	C3414	C	0.640273	0.491354	0.707425
	F3415	F	0.699034	0.430535	0.792780
	C3416	C	0.695816	0.420935	0.762645
	C3417	C	0.707980	0.438642	0.771848
	F3418	F	0.724747	0.465406	0.812073
	C3419	C	0.702407	0.428667	0.739149
	C3420	C	0.687877	0.401186	0.699544
	F3421	F	0.683807	0.391395	0.668783
	C3422	C	0.677248	0.383820	0.691432
	F3423	F	0.663826	0.357727	0.653649
	C3424	C	0.679599	0.393090	0.721740
	F3425	F	0.337282	0.393515	0.522203
	C3426	C	0.369440	0.412510	0.555825
	C3427	C	0.383741	0.417245	0.549187
	F3428	F	0.365272	0.402242	0.508836
	C3429	C	0.417297	0.437697	0.584469
	C3430	C	0.436104	0.452467	0.625768
	F3431	F	0.468109	0.473056	0.661211
	C3432	C	0.422100	0.445989	0.630677
	F3433	F	0.441408	0.458217	0.668493
	C3434	C	0.388510	0.427200	0.597167
	C3435	C	0.508326	0.471038	0.616715
	C3436	C	0.520392	0.486406	0.622165
	C3437	C	0.502644	0.492167	0.611050
	C3438	C	0.474197	0.483950	0.597488
	C3439	C	0.461773	0.468022	0.591275
	C3440	C	0.478421	0.461061	0.599805
	C3441	C	0.554047	0.496398	0.645054
	C3442	C	0.532656	0.469053	0.632820
	N3443	N	0.560387	0.485940	0.651874
	O3444	O	0.530711	0.456073	0.630912
	O3445	O	0.573364	0.511190	0.657647
	C3446	C	0.462385	0.495296	0.592614
	C3447	C	0.509510	0.508456	0.614092
	N3448	N	0.484851	0.510167	0.603636
	O3449	O	0.530750	0.517949	0.622332
	O3450	O	0.438997	0.493167	0.582012
	C3451	C	0.459717	0.444119	0.590369
	C3452	C	0.433382	0.457910	0.580255
	N3453	N	0.433470	0.443665	0.580258
	O3454	O	0.414283	0.461268	0.573948
	O3455	O	0.464730	0.432822	0.591128
	C3456	C	0.047624	0.150297	0.774488
	C3457	C	0.039364	0.141329	0.780064
	C3458	C	0.017168	0.141719	0.780665
	C3459	C	0.003779	0.151403	0.776195
	C3460	C	0.012255	0.160690	0.770958
	C3461	C	0.033746	0.159863	0.769528
	C3462	C	0.057612	0.132283	0.784268
	C3463	C	0.073173	0.148990	0.778091
	N3464	N	0.078373	0.138168	0.784390
	O3465	O	0.087491	0.155638	0.776701
	O3466	O	0.055919	0.121806	0.786848
	C3467	C	-0.018243	0.150144	0.779170
	C3468	C	0.002988	0.132829	0.784754
	N3469	N	-0.017400	0.139205	0.785072
	O3470	O	0.006465	0.121671	0.786138
	O3471	O	-0.034135	0.156722	0.776865
	C3472	C	0.037866	0.171074	0.763594
	C3473	C	0.002768	0.173197	0.767567
	N3474	N	0.018861	0.179038	0.763203
	O3475	O	-0.013918	0.178794	0.769943
	O3476	O	0.053687	0.173508	0.759927
	F3477	F	0.079282	0.104369	0.721718
	C3478	C	0.100084	0.116269	0.759214
	C3479	C	0.119387	0.109581	0.764217
	F3480	F	0.115306	0.090136	0.730033
	C3481	C	0.142889	0.122981	0.804383
	C3482	C	0.146955	0.143923	0.839681
	F3483	F	0.170556	0.158605	0.879856
	C3484	C	0.126959	0.149936	0.834037
	F3485	F	0.131912	0.170246	0.868876
	C3486	C	0.101954	0.135143	0.792659
	F3487	F	0.064715	0.264651	0.848446
	C3488	C	0.041659	0.237302	0.807932
	C3489	C	0.043290	0.222226	0.805534
	F3490	F	0.068441	0.235134	0.843406
	C3491	C	0.018876	0.193719	0.764106
	C3492	C	-0.005951	0.180513	0.724422
	F3493	F	-0.029046	0.153192	0.684107
	C3494	C	-0.006888	0.195495	0.726491
	F3495	F	-0.030390	0.182335	0.687897
	C3496	C	0.016353	0.224171	0.768437
	F3497	F	1.008692	0.170367	0.866348
	C3498	C	0.977001	0.148688	0.827233
	C3499	C	0.957623	0.141399	0.826914
	F3500	F	0.970671	0.156643	0.865932
	C3501	C	0.924624	0.118100	0.786085
	C3502	C	0.911105	0.103731	0.746512
	F3503	F	0.879326	0.082171	0.707342
	C3504	C	0.930396	0.111177	0.747012
	F3505	F	0.916821	0.096526	0.708257
	C3506	C	0.963719	0.133321	0.786928
	C3507	C	0.188440	0.104332	0.826902
	C3508	C	0.197545	0.106805	0.814326
	C3509	C	0.216949	0.100515	0.810499
	C3510	C	0.227737	0.092746	0.820789
	C3511	C	0.220577	0.092208	0.836666
	C3512	C	0.200161	0.097096	0.838345
	C3513	C	0.180840	0.114092	0.803190
	C3514	C	0.165271	0.109556	0.823552
	N3515	N	0.161967	0.115849	0.809843
	O3516	O	0.151016	0.108440	0.829839
	O3517	O	0.182317	0.117892	0.790817
	C3518	C	0.244462	0.084104	0.808879
	C3519	C	0.226764	0.097141	0.791578
	N3520	N	0.243464	0.087293	0.791689
	O3521	O	0.220589	0.100262	0.776338
	O3522	O	0.255148	0.074504	0.810214
	C3523	C	0.193437	0.091170	0.850267
	C3524	C	0.228416	0.083838	0.848580
	N3525	N	0.210842	0.083002	0.855455
	O3526	O	0.245700	0.078474	0.851913
	O3527	O	0.176384	0.091991	0.853979
	C3528	C	-0.020764	0.263104	0.751971
	C3529	C	-0.008275	0.279118	0.758635
	C3530	C	0.021652	0.289112	0.775592
	C3531	C	0.037837	0.281534	0.782946
	C3532	C	0.025844	0.266168	0.777812
	C3533	C	-0.002835	0.257639	0.763652
	C3534	C	-0.032745	0.280858	0.742051
	C3535	C	-0.054331	0.253270	0.729338
	N3536	N	-0.060583	0.263819	0.722681
	O3537	O	-0.073674	0.238488	0.716738
	O3538	O	-0.030806	0.293807	0.743899
	C3539	C	0.066465	0.291949	0.794545
	C3540	C	0.040179	0.305808	0.784559
	N3541	N	0.066399	0.306226	0.794605
	O3542	O	0.035083	0.316999	0.783591
	O3543	O	0.085703	0.288754	0.801162
	C3544	C	-0.009800	0.241212	0.760347
	C3545	C	0.037327	0.254386	0.781838
	N3546	N	0.014822	0.239454	0.770702
	O3547	O	0.060536	0.256285	0.791985
	O3548	O	-0.031065	0.231674	0.752034
	C3549	C	0.827053	0.057252	0.741722
	C3550	C	0.838086	0.077500	0.755391
	C3551	C	0.864096	0.086277	0.764481
	C3552	C	0.878812	0.075112	0.760990
	C3553	C	0.868033	0.055227	0.748362
	C3554	C	0.841546	0.045801	0.737462
	C3555	C	0.817056	0.085070	0.756427
	C3556	C	0.799912	0.051686	0.734877
	N3557	N	0.794220	0.068329	0.742904
	O3558	O	0.785441	0.036686	0.725433
	O3559	O	0.818329	0.101873	0.766990
	C3560	C	0.905804	0.088005	0.772848
	C3561	C	0.880650	0.105991	0.776708
	N3562	N	0.906019	0.106455	0.782221
	O3563	O	0.874413	0.118651	0.780106
	O3564	O	0.924094	0.083874	0.773811
	C3565	C	0.834273	0.024092	0.723606
	C3566	C	0.879339	0.040185	0.742860
	N3567	N	0.858155	0.021974	0.728365
	O3568	O	0.901541	0.042218	0.749146
	O3569	O	0.812958	0.010289	0.710525
	F3570	F	0.174205	0.027314	0.775294
	C3571	C	0.183784	0.039404	0.810599
	C3572	C	0.173369	0.023474	0.804863
	F3573	F	0.153984	-0.003805	0.764125
	C3574	C	0.182270	0.035578	0.840848
	C3575	C	0.203837	0.064172	0.883791
	F3576	F	0.214051	0.076191	0.919265
	C3577	C	0.214298	0.080157	0.889502
	F3578	F	0.234468	0.107428	0.930367
	C3579	C	0.203482	0.067877	0.852555
	F3580	F	0.192714	0.040599	0.699011
	C3581	C	0.222218	0.051114	0.718265
	C3582	C	0.225691	0.038638	0.690915
	F3583	F	0.199455	0.016791	0.645701
	C3584	C	0.256464	0.049056	0.710684
	C3585	C	0.283108	0.070629	0.757612
	F3586	F	0.312671	0.079798	0.776692
	C3587	C	0.279371	0.082900	0.784757
	F3588	F	0.305047	0.102970	0.829122
	C3589	C	0.248889	0.074389	0.765748
	F3590	F	0.892693	0.226387	0.632207
	C3591	C	0.888667	0.242041	0.657498
	C3592	C	0.863148	0.241235	0.640335
	F3593	F	0.842070	0.223967	0.597841
	C3594	C	0.859623	0.258540	0.667319
	C3595	C	0.881143	0.275206	0.710652
	F3596	F	0.879470	0.292685	0.738404
	C3597	C	0.904763	0.274195	0.725949
	F3598	F	0.922735	0.288108	0.765238
	C3599	C	0.910483	0.259225	0.701291
	F3600	F	0.134633	0.347726	0.866314
	C3601	C	0.116290	0.332774	0.826026
	C3602	C	0.130719	0.337717	0.819692
	F3603	F	0.162896	0.356681	0.853390
	C3604	C	0.111779	0.323093	0.778429
	C3605	C	0.078174	0.304290	0.744807
	F3606	F	0.058990	0.292165	0.707103
	C3607	C	0.064026	0.297691	0.749481
	F3608	F	0.032005	0.277104	0.713936
	C3609	C	0.082708	0.312336	0.790648
	F3610	F	0.876397	0.038677	0.793333
	C3611	C	0.870026	0.015749	0.759119
	C3612	C	0.869990	-0.000135	0.755100
	F3613	F	0.872950	0.006073	0.782204
	C3614	C	0.866068	-0.022944	0.722312
	C3615	C	0.860672	-0.030187	0.692032
	F3616	F	0.857385	-0.051677	0.660773
	C3617	C	0.858083	-0.015595	0.693570
	F3618	F	0.850623	-0.024111	0.662204
	C3619	C	0.862919	0.007698	0.727386
	F3620	F	0.807953	0.112666	0.818375
	C3621	C	0.777080	0.089572	0.777376
	C3622	C	0.752922	0.087665	0.773752
	F3623	F	0.760878	0.109202	0.811245
	C3624	C	0.720427	0.063707	0.731311
	C3625	C	0.712838	0.041545	0.692701
	F3626	F	0.682006	0.018227	0.651937
	C3627	C	0.736927	0.043746	0.696199
	F3628	F	0.728941	0.022765	0.658498
	C3629	C	0.769504	0.067698	0.738725
	C3630	C	0.118793	-0.015914	0.788836
	C3631	C	0.137245	-0.023758	0.787450
	C3632	C	0.125860	-0.048246	0.763866
	C3633	C	0.095848	-0.064771	0.741285
	C3634	C	0.077605	-0.056672	0.743365
	C3635	C	0.088922	-0.032315	0.766999
	C3636	C	0.167883	-0.002118	0.814181
	C3637	C	0.137399	0.011371	0.817648
	N3638	N	0.166159	0.018189	0.830641
	O3639	O	0.130224	0.025350	0.828115
	O3640	O	0.189927	-0.001309	0.820856
	C3641	C	0.090238	-0.088735	0.720965
	C3642	C	0.140278	-0.061647	0.757654
	N3643	N	0.117397	-0.086025	0.731290
	O3644	O	0.165643	-0.054328	0.771356
	O3645	O	0.067599	-0.107168	0.699872
	C3646	C	0.067132	-0.026915	0.769783
	C3647	C	0.046632	-0.069100	0.726256
	N3648	N	0.042840	-0.049425	0.745927
	O3649	O	0.027799	-0.091162	0.700937
	O3650	O	0.069424	-0.007387	0.789473
	C3651	C	0.309527	0.024057	0.641873
	C3652	C	0.300016	0.018393	0.650773
	C3653	C	0.282057	0.024925	0.657904
	C3654	C	0.272133	0.035663	0.653542
	C3655	C	0.280164	0.040076	0.642139
	C3656	C	0.299525	0.035047	0.637608
	C3657	C	0.314527	0.007634	0.654853
	C3658	C	0.333098	0.019357	0.644171
	N3659	N	0.335397	0.009793	0.652686
	O3660	O	0.348413	0.023283	0.641124
	O3661	O	0.310278	-0.001171	0.659384
	C3662	C	0.258584	0.045010	0.670836
	C3663	C	0.272777	0.024875	0.674450
	N3664	N	0.260510	0.038669	0.684151
	O3665	O	0.275440	0.016098	0.680378
	O3666	O	0.249527	0.057142	0.676131
	C3667	C	0.307228	0.044948	0.631201
	C3668	C	0.272953	0.051459	0.635610
	N3669	N	0.290945	0.054974	0.630960
	O3670	O	0.255113	0.056349	0.633365
	O3671	O	0.324017	0.045225	0.627479
	C3672	C	0.772239	0.285706	0.653691
	C3673	C	0.781464	0.274357	0.656991
	C3674	C	0.799369	0.267766	0.649764
	C3675	C	0.809446	0.274003	0.641864
	C3676	C	0.798677	0.284233	0.636248
	C3677	C	0.779348	0.289297	0.640836
	C3678	C	0.772787	0.274832	0.674451
	C3679	C	0.758561	0.294940	0.670784
	N3680	N	0.760664	0.288743	0.684345
	O3681	O	0.749340	0.306943	0.675851
	O3682	O	0.775730	0.266296	0.680808
	C3683	C	0.832840	0.269129	0.643836
	C3684	C	0.814369	0.257478	0.654669
	N3685	N	0.835267	0.259687	0.652561
	O3686	O	0.810404	0.248928	0.659672
	O3687	O	0.847976	0.272879	0.640464
	C3688	C	0.772663	0.301178	0.635189
	C3689	C	0.806883	0.294598	0.630695
	N3690	N	0.790756	0.304766	0.630702
	O3691	O	0.823875	0.295059	0.627328
	O3692	O	0.755066	0.306321	0.633360
	C3693	C	0.125808	0.332207	0.721939
	C3694	C	0.142428	0.329503	0.712761
	C3695	C	0.160694	0.322584	0.719321
	C3696	C	0.161899	0.317681	0.733999
	C3697	C	0.145964	0.321375	0.744910
	C3698	C	0.128653	0.329119	0.739652
	C3699	C	0.139084	0.337639	0.700648
	C3700	C	0.110088	0.341251	0.714365
	N3701	N	0.119895	0.345018	0.703061
	O3702	O	0.092828	0.345283	0.717191
	O3703	O	0.150673	0.339150	0.692090
	C3704	C	0.184374	0.311585	0.738712
	C3705	C	0.181717	0.319886	0.714060
	N3706	N	0.195747	0.313670	0.726725
	O3707	O	0.187273	0.322829	0.702582
	O3708	O	0.192170	0.306124	0.750222
	C3709	C	0.115786	0.333255	0.756042
	C3710	C	0.142184	0.318039	0.761430
	N3711	N	0.124665	0.326390	0.768974
	O3712	O	0.150765	0.309335	0.766515
	O3713	O	0.100965	0.341111	0.758737
	C3714	C	0.922732	-0.049878	0.749515
	C3715	C	0.914888	-0.071308	0.733280
	C3716	C	0.884058	-0.089296	0.708094
	C3717	C	0.861251	-0.086234	0.698230
	C3718	C	0.868878	-0.065317	0.712486
	C3719	C	0.899731	-0.047407	0.738178
	C3720	C	0.942718	-0.071019	0.743892
	C3721	C	0.956988	-0.032652	0.777238
	N3722	N	0.966598	-0.047877	0.768325
	O3723	O	0.973875	-0.010107	0.802820
	O3724	O	0.945392	-0.086885	0.733462
	C3725	C	0.831431	-0.108205	0.672208
	C3726	C	0.869555	-0.113323	0.688074
	N3727	N	0.838067	-0.123848	0.667179
	O3728	O	0.881457	-0.122464	0.689290
	O3729	O	0.806548	-0.112487	0.658067
	C3730	C	0.902063	-0.028799	0.745728
	C3731	C	0.850715	-0.056804	0.705685
	N3732	N	0.871810	-0.035813	0.724142
	O3733	O	0.824642	-0.064332	0.689792
	O3734	O	0.924520	-0.011196	0.765251
	C3735	C	0.659795	0.071770	0.717688
	C3736	C	0.661660	0.067560	0.733497
	C3737	C	0.645186	0.070710	0.743522
	C3738	C	0.627411	0.077992	0.737517
	C3739	C	0.625358	0.081843	0.721045
	C3740	C	0.641434	0.078595	0.710969
	C3741	C	0.684160	0.061498	0.738269
	C3742	C	0.681311	0.069588	0.713276
	N3743	N	0.695600	0.063654	0.726403
	O3744	O	0.686986	0.072656	0.702004
	O3745	O	0.691972	0.056056	0.749811
	C3746	C	0.614960	0.082534	0.754563
	C3747	C	0.641507	0.067460	0.760190
	N3748	N	0.623957	0.075781	0.767680
	O3749	O	0.650171	0.058832	0.765406
	O3750	O	0.600326	0.090562	0.757545
	C3751	C	0.638529	0.087161	0.699583
	C3752	C	0.609277	0.090522	0.712862
	N3753	N	0.619286	0.094491	0.701906
	O3754	O	0.591665	0.094198	0.715084
	O3755	O	0.650435	0.088982	0.691563
	F3756	F	-0.044187	-0.051221	0.719867
	C3757	C	-0.019880	-0.049702	0.738849
	C3758	C	-0.002108	-0.051146	0.731620
	F3759	F	-0.010002	-0.054824	0.705077
	C3760	C	0.023893	-0.048908	0.751783
	C3761	C	0.031150	-0.045877	0.778390
	F3762	F	0.056113	-0.043699	0.797947
	C3763	C	0.013120	-0.044723	0.785253
	F3764	F	0.021063	-0.041115	0.811715
	C3765	C	-0.013086	-0.047180	0.764756
	F3766	F	0.097571	0.364097	0.651978
	C3767	C	0.109206	0.371934	0.684059
	C3768	C	0.106947	0.353867	0.675544
	F3769	F	0.091319	0.328080	0.634231
	C3770	C	0.120959	0.362557	0.710060
	C3771	C	0.137899	0.389826	0.753484
	F3772	F	0.153032	0.399034	0.787749
	C3773	C	0.138697	0.407391	0.761235
	F3774	F	0.153837	0.433069	0.802358
	C3775	C	0.123133	0.398216	0.725962
	F3776	F	0.379470	0.042744	0.738488
	C3777	C	0.381143	0.025242	0.710750
	C3778	C	0.404822	0.024305	0.726156
	F3779	F	0.422751	0.038225	0.765444
	C3780	C	0.410614	0.009384	0.701585
	C3781	C	0.388893	-0.007745	0.657843
	F3782	F	0.392910	-0.023438	0.632560
	C3783	C	0.363334	-0.008611	0.640585
	F3784	F	0.342314	-0.025862	0.598109
	C3785	C	0.359740	0.008649	0.667487
	F3786	F	0.275212	0.034445	0.562549
	C3787	C	0.291810	0.061188	0.602637
	C3788	C	0.304013	0.078872	0.611813
	F3789	F	0.300739	0.069227	0.581612
	C3790	C	0.320069	0.106691	0.652574
	C3791	C	0.322326	0.115972	0.682832
	F3792	F	0.335563	0.142023	0.720446
	C3793	C	0.311805	0.098666	0.674860
	F3794	F	0.315841	0.108495	0.705630
	C3795	C	0.297428	0.071217	0.635402
	F3796	F	0.836112	0.392112	0.721047
	C3797	C	0.822565	0.365990	0.683153
	C3798	C	0.811987	0.348625	0.675058
	F3799	F	0.816100	0.358416	0.705844
	C3800	C	0.797430	0.321140	0.635421
	C3801	C	0.791848	0.311179	0.602729
	F3802	F	0.775024	0.284409	0.562457
	C3803	C	0.804095	0.328915	0.612013
	F3804	F	0.800777	0.319310	0.581815
	C3805	C	0.820275	0.356750	0.652904
	F3806	F	0.699656	0.266916	0.646017
	C3807	C	0.725919	0.288806	0.691245
	C3808	C	0.722482	0.301341	0.718646
	F3809	F	0.692988	0.290844	0.699428
	C3810	C	0.749178	0.324646	0.766139
	C3811	C	0.779657	0.333175	0.785127
	F3812	F	0.805334	0.353195	0.829462
	C3813	C	0.783358	0.320852	0.757931
	F3814	F	0.812892	0.329927	0.776940
	C3815	C	0.756678	0.299200	0.710965
	F3816	F	0.261112	0.359071	0.811312
	C3817	C	0.252973	0.337473	0.773662
	C3818	C	0.276985	0.339272	0.776994
	F3819	F	0.307896	0.362334	0.817867
	C3820	C	0.269225	0.317328	0.738186
	C3821	C	0.236602	0.293433	0.695783
	F3822	F	0.228452	0.272335	0.657960
	C3823	C	0.212657	0.291346	0.692572
	F3824	F	0.181806	0.268025	0.651973
	C3825	C	0.220436	0.313564	0.731352
	F3826	F	0.652219	0.148326	0.786709
	C3827	C	0.637455	0.139419	0.752824
	C3828	C	0.638388	0.157159	0.760961
	F3829	F	0.653428	0.182743	0.802132
	C3830	C	0.623101	0.148271	0.726043
	C3831	C	0.609207	0.122066	0.684063
	F3832	F	0.597963	0.114551	0.652418
	C3833	C	0.606815	0.103819	0.675156
	F3834	F	0.591299	0.078128	0.633801
	C3835	C	0.620542	0.112221	0.709304
	F3836	F	0.558315	0.041586	0.706077
	C3837	C	0.577658	0.053789	0.743870
	C3838	C	0.563686	0.047389	0.748887
	F3839	F	0.531680	0.026820	0.713490
	C3840	C	0.582527	0.062183	0.790212
	C3841	C	0.616075	0.082646	0.825474
	F3842	F	0.634576	0.097657	0.865837
	C3843	C	0.630333	0.087403	0.818821
	F3844	F	0.662493	0.106350	0.852378
	C3845	C	0.611238	0.072634	0.777406
	C3846	C	0.497232	0.007644	0.763587
	C3847	C	0.525640	0.015821	0.777056
	C3848	C	0.537857	0.031506	0.782790
	C3849	C	0.521686	0.039118	0.775517
	C3850	C	0.491604	0.028870	0.758107
	C3851	C	0.479497	0.013432	0.752528
	C3852	C	0.537377	0.004360	0.781698
	C3853	C	0.490398	-0.008631	0.760578
	N3854	N	0.515003	-0.010413	0.770878
	O3855	O	0.469223	-0.018064	0.752471
	O3856	O	0.560656	0.006350	0.792016
	C3857	C	0.540185	0.055810	0.784461
	C3858	C	0.566468	0.041922	0.794364
	N3859	N	0.566389	0.056215	0.794453
	O3860	O	0.585698	0.038716	0.800938
	O3861	O	0.535080	0.067014	0.783524
	C3862	C	0.445837	0.003436	0.729631
	C3863	C	0.467352	0.030985	0.742253
	N3864	N	0.439569	0.014013	0.723030
	O3865	O	0.469378	0.044107	0.744435
	O3866	O	0.426472	-0.011438	0.716881
	C3867	C	0.383760	0.160430	0.707314
	C3868	C	0.361256	0.163910	0.698400
	C3869	C	0.368785	0.184596	0.712123
	C3870	C	0.399530	0.202263	0.737337
	C3871	C	0.422866	0.200359	0.750028
	C3872	C	0.414809	0.178684	0.733197
	C3873	C	0.331270	0.141742	0.671889
	C3874	C	0.369346	0.136573	0.687687
	N3875	N	0.337864	0.126068	0.666807
	O3876	O	0.381297	0.127519	0.689126
	O3877	O	0.306313	0.137362	0.657489
	C3878	C	0.402049	0.221100	0.745383
	C3879	C	0.350706	0.193186	0.705440
	N3880	N	0.371855	0.214189	0.723952
	O3881	O	0.324662	0.185723	0.689629
	O3882	O	0.424572	0.238748	0.765044
	C3883	C	0.442593	0.178917	0.743695
	C3884	C	0.456981	0.217367	0.777238
	N3885	N	0.466494	0.202062	0.768151
	O3886	O	0.473863	0.239856	0.802663
	O3887	O	0.445225	0.163015	0.733183
	C3888	C	0.688660	0.354524	0.827169
	C3889	C	0.697818	0.357050	0.814681
	C3890	C	0.717260	0.350796	0.810915
	C3891	C	0.728039	0.343020	0.821193
	C3892	C	0.720831	0.342435	0.836994
	C3893	C	0.700368	0.347276	0.838592
	C3894	C	0.681078	0.364301	0.803486
	C3895	C	0.665448	0.359701	0.823743
	N3896	N	0.662145	0.365997	0.810038
	O3897	O	0.651165	0.358555	0.829980
	O3898	O	0.682559	0.368107	0.791122
	C3899	C	0.744783	0.334394	0.809313
	C3900	C	0.727123	0.347462	0.792061
	N3901	N	0.743794	0.337588	0.792133
	O3902	O	0.721014	0.350637	0.776909
	O3903	O	0.755470	0.324795	0.810649
	C3904	C	0.693570	0.341278	0.850388
	C3905	C	0.728645	0.334042	0.848871
	N3906	N	0.711004	0.333141	0.855632
	O3907	O	0.745955	0.328706	0.852257
	O3908	O	0.676439	0.342019	0.853961
	C3909	C	0.378168	0.324506	0.759678
	C3910	C	0.363089	0.335328	0.762439
	C3911	C	0.337153	0.326586	0.753483
	C3912	C	0.326634	0.306776	0.740816
	C3913	C	0.340661	0.294892	0.735535
	C3914	C	0.366789	0.304006	0.745677
	C3915	C	0.379998	0.355421	0.775474
	C3916	C	0.404880	0.337156	0.770968
	N3917	N	0.405274	0.355797	0.780770
	O3918	O	0.422877	0.332753	0.771296
	O3919	O	0.374059	0.368397	0.779553
	C3920	C	0.299486	0.301173	0.733942
	C3921	C	0.316498	0.334497	0.755343
	N3922	N	0.293815	0.317859	0.742091
	O3923	O	0.317890	0.351425	0.766203
	O3924	O	0.285023	0.286137	0.724448
	C3925	C	0.378395	0.289240	0.740747
	C3926	C	0.333486	0.273230	0.721790
	N3927	N	0.357342	0.271098	0.726449
	O3928	O	0.312277	0.259484	0.708887
	O3929	O	0.400695	0.291394	0.747241
	C3930	C	0.577569	0.193402	0.743253
	C3931	C	0.589323	0.218096	0.767864
	C3932	C	0.619214	0.234492	0.789728
	C3933	C	0.637273	0.226296	0.787375
	C3934	C	0.626128	0.202056	0.764494
	C3935	C	0.596282	0.185723	0.742389
	C3936	C	0.567259	0.223295	0.770060
	C3937	C	0.546724	0.181079	0.726446
	N3938	N	0.542894	0.200729	0.746043
	O3939	O	0.527964	0.159067	0.701292
	O3940	O	0.569437	0.242751	0.789534
	C3941	C	0.667995	0.247980	0.814277
	C3942	C	0.637642	0.261593	0.818014
	N3943	N	0.666313	0.268311	0.830781
	O3944	O	0.630425	0.275531	0.828322
	O3945	O	0.690037	0.248774	0.820966
	C3946	C	0.590394	0.161522	0.721432
	C3947	C	0.640490	0.188608	0.758206
	N3948	N	0.617537	0.164201	0.731734
	O3949	O	0.665866	0.195917	0.771937
	O3950	O	0.567598	0.142962	0.699970
	F3951	F	0.471054	-0.096668	0.684278
	C3952	C	0.494141	-0.069345	0.724612
	C3953	C	0.493230	-0.054354	0.726700
	F3954	F	0.469662	-0.067494	0.688139
	C3955	C	0.516543	-0.025683	0.768639
	C3956	C	0.541946	-0.012581	0.808075
	F3957	F	0.564987	0.014769	0.848607
	C3958	C	0.543552	-0.027673	0.805650
	F3959	F	0.568771	-0.014791	0.843468
	C3960	C	0.519071	-0.056170	0.764236
	F3961	F	0.357434	0.198035	0.660359
	C3962	C	0.360466	0.219441	0.691284
	C3963	C	0.357649	0.233794	0.692354
	F3964	F	0.350018	0.225026	0.660690
	C3965	C	0.362408	0.257097	0.725992
	C3966	C	0.369894	0.265510	0.758219
	F3967	F	0.376147	0.288441	0.792227
	C3968	C	0.370119	0.249879	0.754708
	F3969	F	0.373493	0.256474	0.782368
	C3970	C	0.366109	0.226977	0.721944
	F3971	F	0.489976	0.195242	0.705066
	C3972	C	0.497861	0.198905	0.731589
	C3973	C	0.480024	0.200258	0.738697
	F3974	F	0.455651	0.198655	0.719605
	C3975	C	0.486818	0.202774	0.764598
	C3976	C	0.513106	0.205347	0.785250
	F3977	F	0.520935	0.208795	0.811496
	C3978	C	0.531196	0.204277	0.778499
	F3979	F	0.556109	0.206385	0.797961
	C3980	C	0.523914	0.201211	0.751844
	F3981	F	0.670555	0.408671	0.879882
	C3982	C	0.647028	0.394004	0.839711
	C3983	C	0.626915	0.399902	0.833910
	F3984	F	0.631777	0.420166	0.868666
	C3985	C	0.601920	0.385072	0.792490
	C3986	C	0.600072	0.366179	0.759073
	F3987	F	0.579361	0.354314	0.721610
	C3988	C	0.619481	0.359596	0.764229
	F3989	F	0.615465	0.340173	0.730110
	C3990	C	0.642993	0.373053	0.804456
	F3991	F	0.714097	0.326302	0.919358
	C3992	C	0.704010	0.314292	0.883944
	C3993	C	0.714410	0.330279	0.889635
	F3994	F	0.734506	0.357546	0.930469
	C3995	C	0.703641	0.318007	0.852713
	C3996	C	0.683941	0.289533	0.810752
	F3997	F	0.674517	0.277463	0.775531
	C3998	C	0.673578	0.273602	0.805034
	F3999	F	0.654260	0.246329	0.764327
	C4000	C	0.682431	0.285698	0.840990
	F4001	F	0.378749	0.331793	0.706190
	C4002	C	0.410524	0.353345	0.745419
	C4003	C	0.429931	0.360793	0.746032
	F4004	F	0.416449	0.346214	0.707363
	C4005	C	0.463269	0.382881	0.785980
	C4006	C	0.476480	0.398111	0.826160
	F4007	F	0.508165	0.419790	0.865338
	C4008	C	0.456994	0.390803	0.825718
	F4009	F	0.469967	0.405950	0.864641
	C4010	C	0.423970	0.367560	0.784847
	C4011	C	0.539115	0.391032	0.779450
	C4012	C	0.547476	0.400089	0.774041
	C4013	C	0.533331	0.409367	0.768553
	C4014	C	0.512062	0.410427	0.770391
	C4015	C	0.503504	0.401077	0.775505
	C4016	C	0.516834	0.391344	0.779896
	C4017	C	0.573094	0.398850	0.777786
	C4018	C	0.557442	0.382073	0.783824
	N4019	N	0.578295	0.388046	0.784119
	O4020	O	0.555739	0.371596	0.786401
	O4021	O	0.587463	0.405538	0.776480
	C4022	C	0.502712	0.423061	0.767233
	C4023	C	0.537972	0.421091	0.763551
	N4024	N	0.519015	0.429101	0.763241
	O4025	O	0.554082	0.423806	0.760402
	O4026	O	0.485968	0.428603	0.769508
	C4027	C	0.502563	0.382383	0.783841
	C4028	C	0.481518	0.399869	0.778553
	N4029	N	0.482237	0.388825	0.784262
	O4030	O	0.465747	0.406568	0.776455
	O4031	O	0.505926	0.371128	0.785043
	C4032	C	0.020928	0.236964	0.873045
	C4033	C	0.008834	0.221526	0.867474
	C4034	C	-0.021063	0.211549	0.850584
	C4035	C	-0.037725	0.218515	0.842082
	C4036	C	-0.025276	0.234526	0.848435
	C4037	C	0.003393	0.243064	0.862583
	C4038	C	0.033095	0.219417	0.883333
	C4039	C	0.054582	0.246947	0.895908
	N4040	N	0.060847	0.236344	0.902463
	O4041	O	0.073948	0.261830	0.908671
	O4042	O	0.031089	0.206322	0.881204
	C4043	C	-0.066226	0.208235	0.830777
	C4044	C	-0.039792	0.194533	0.841027
	N4045	N	-0.066124	0.193971	0.830743
	O4046	O	-0.034723	0.183276	0.841857
	O4047	O	-0.085418	0.211487	0.824292
	C4048	C	0.010000	0.259042	0.865027
	C4049	C	-0.037139	0.245834	0.843498
	N4050	N	-0.014722	0.260675	0.854438
	O4051	O	-0.060530	0.243697	0.832904
	O4052	O	0.031127	0.268410	0.873015
	F4053	F	0.077688	0.212255	0.860066
	C4054	C	0.095623	0.226112	0.899298
	C4055	C	0.119148	0.224996	0.914468
	F4056	F	0.120827	0.207543	0.886708
	C4057	C	0.140588	0.241553	0.957703
	C4058	C	0.137029	0.258808	0.984669
	F4059	F	0.158063	0.276009	1.027108
	C4060	C	0.111492	0.257987	0.967512
	F4061	F	0.107480	0.273642	0.992824
	C4062	C	0.089789	0.240944	0.923843
	F4063	F	0.029033	0.346858	0.940835
	C4064	C	0.005956	0.319536	0.900531
	C4065	C	0.006980	0.304569	0.898483
	F4066	F	0.030470	0.317755	0.937111
	C4067	C	-0.016306	0.275896	0.856578
	C4068	C	-0.041648	0.262748	0.817072
	F4069	F	-0.064716	0.235402	0.776588
	C4070	C	-0.043285	0.277804	0.819421
	F4071	F	-0.068536	0.264890	0.781576
	C4072	C	-0.018915	0.306317	0.860843
	F4073	F	0.968318	0.223210	0.911524
	C4074	C	0.936303	0.202617	0.876000
	C4075	C	0.922218	0.195966	0.880666
	F4076	F	0.941457	0.208117	0.918400
	C4077	C	0.888620	0.177114	0.847029
	C4078	C	0.869649	0.162437	0.805714
	F4079	F	0.837481	0.143437	0.772010
	C4080	C	0.884045	0.167338	0.799312
	F4081	F	0.865668	0.152399	0.759030
	C4082	C	0.917602	0.187871	0.834740
	C4083	C	0.190590	0.225922	0.982914
	C4084	C	0.200736	0.232210	0.975115
	C4085	C	0.218618	0.225594	0.967853
	C4086	C	0.227734	0.214152	0.970991
	C4087	C	0.220570	0.210517	0.983765
	C4088	C	0.201277	0.215622	0.988410
	C4089	C	0.185827	0.242578	0.970342
	C4090	C	0.167228	0.230832	0.980983
	N4091	N	0.164891	0.240348	0.972388
	O4092	O	0.152048	0.227053	0.984287
	O4093	O	0.189883	0.251200	0.965475
	C4094	C	0.241367	0.204885	0.953835
	C4095	C	0.227368	0.225184	0.950504
	N4096	N	0.239413	0.211211	0.940495
	O4097	O	0.224530	0.233809	0.944304
	O4098	O	0.250454	0.192774	0.948573
	C4099	C	0.193013	0.205219	0.993886
	C4100	C	0.227160	0.198555	0.989267
	N4101	N	0.209077	0.194994	0.993787
	O4102	O	0.244675	0.193328	0.990960
	O4103	O	0.176043	0.204788	0.997296
	C4104	C	-0.047892	0.349555	0.850149
	C4105	C	-0.039041	0.359160	0.845707
	C4106	C	-0.016852	0.358768	0.845092
	C4107	C	-0.004049	0.348485	0.848477
	C4108	C	-0.011841	0.339874	0.854942
	C4109	C	-0.033652	0.340364	0.855779
	C4110	C	-0.057599	0.367880	0.840918
	C4111	C	-0.073278	0.351039	0.846861
	N4112	N	-0.078451	0.361887	0.840608
	O4113	O	-0.087536	0.344460	0.848372
	O4114	O	-0.056027	0.378238	0.838118
	C4115	C	0.018270	0.350057	0.846052
	C4116	C	-0.003036	0.367300	0.840342
	N4117	N	0.017364	0.360935	0.840044
	O4118	O	-0.006760	0.378217	0.838510
	O4119	O	0.034387	0.343708	0.848757
	C4120	C	-0.037876	0.329028	0.861494
	C4121	C	-0.002759	0.326951	0.857562
	N4122	N	-0.018916	0.321017	0.861781
	O4123	O	0.013733	0.321177	0.854831
	O4124	O	-0.053724	0.326551	0.865100
	C4125	C	0.839666	0.177672	0.906131
	C4126	C	0.838445	0.182532	0.891391
	C4127	C	0.854888	0.179326	0.881305
	C4128	C	0.871968	0.171367	0.886234
	C4129	C	0.874782	0.168284	0.903945
	C4130	C	0.858410	0.171261	0.913546
	C4131	C	0.815668	0.188303	0.886120
	C4132	C	0.818376	0.180109	0.910933
	N4133	N	0.804147	0.186086	0.897868
	O4134	O	0.812785	0.177160	0.922384
	O4135	O	0.807755	0.193619	0.874371
	C4136	C	0.884745	0.167117	0.869688
	C4137	C	0.858236	0.182212	0.864056
	N4138	N	0.875772	0.173865	0.856559
	O4139	O	0.849393	0.190654	0.858511
	O4140	O	0.899581	0.159275	0.867035
	C4141	C	0.861225	0.162640	0.924833
	C4142	C	0.890326	0.159085	0.911277
	N4143	N	0.880341	0.155187	0.922324
	O4144	O	0.907577	0.155031	0.908448
	O4145	O	0.849364	0.160892	0.932954
	F4146	F	0.183349	0.141243	0.918390
	C4147	C	0.187719	0.151116	0.949382
	C4148	C	0.177024	0.133749	0.941245
	F4149	F	0.163381	0.107599	0.903303
	C4150	C	0.179564	0.143087	0.971718
	C4151	C	0.195901	0.170957	1.012692
	F4152	F	0.199383	0.180631	1.043035
	C4153	C	0.208129	0.188657	1.021906
	F4154	F	0.225083	0.215452	1.062236
	C4155	C	0.202389	0.178631	0.989081
	F4156	F	0.187244	0.170136	0.847992
	C4157	C	0.216787	0.179245	0.867021
	C4158	C	0.220495	0.166906	0.839827
	F4159	F	0.194830	0.146906	0.795502
	C4160	C	0.250970	0.175411	0.858813
	C4161	C	0.277658	0.198672	0.906294
	F4162	F	0.307165	0.209170	0.925545
	C4163	C	0.274198	0.211141	0.933652
	F4164	F	0.300454	0.233037	0.978885
	C4165	C	0.243439	0.200803	0.913936
	F4166	F	0.867951	0.329735	0.756071
	C4167	C	0.872883	0.350035	0.790889
	C4168	C	0.852932	0.356084	0.785260
	F4169	F	0.829286	0.341344	0.745032
	C4170	C	0.857055	0.377087	0.820594
	C4171	C	0.880612	0.390555	0.860828
	F4172	F	0.884731	0.410044	0.895040
	C4173	C	0.899960	0.383910	0.865892
	F4174	F	0.920742	0.395807	0.903386
	C4175	C	0.897977	0.364921	0.832348
	F4176	F	0.082994	0.404021	0.917281
	C4177	C	0.069638	0.389189	0.878475
	C4178	C	0.089060	0.396706	0.879168
	F4179	F	0.120782	0.418406	0.918507
	C4180	C	0.075728	0.382243	0.839592
	C4181	C	0.042785	0.358828	0.798616
	F4182	F	0.029933	0.343506	0.759624
	C4183	C	0.023253	0.351523	0.798131
	F4184	F	-0.008371	0.329684	0.758838
	C4185	C	0.036357	0.366921	0.838387
	F4186	F	0.908787	0.171991	0.990979
	C4187	C	0.893060	0.146191	0.949594
	C4188	C	0.890844	0.128105	0.941029
	F4189	F	0.902372	0.135866	0.973004
	C4190	C	0.876817	0.101802	0.899045
	C4191	C	0.861320	0.092695	0.863856
	F4192	F	0.846149	0.067023	0.822696
	C4193	C	0.862217	0.110324	0.871734
	F4194	F	0.847173	0.101198	0.837571
	C4195	C	0.879171	0.137580	0.915188
	F4196	F	0.817836	0.231616	0.972359
	C4197	C	0.787002	0.208282	0.931672
	C4198	C	0.762984	0.206103	0.928309
	F4199	F	0.771024	0.227166	0.966040
	C4200	C	0.730390	0.182169	0.885835
	C4201	C	0.722742	0.160258	0.847125
	F4202	F	0.691851	0.137184	0.806173
	C4203	C	0.746851	0.162099	0.850651
	F4204	F	0.738816	0.140560	0.813082
	C4205	C	0.779350	0.186072	0.893017
	C4206	C	0.116008	0.089484	0.917304
	C4207	C	0.138785	0.086379	0.927080
	C4208	C	0.131323	0.065732	0.913443
	C4209	C	0.100378	0.047680	0.887413
	C4210	C	0.077406	0.050191	0.876160
	C4211	C	0.085397	0.071808	0.892855
	C4212	C	0.168497	0.108182	0.952723
	C4213	C	0.130425	0.113369	0.936995
	N4214	N	0.161823	0.123760	0.957596
	O4215	O	0.118523	0.122502	0.935751
	O4216	O	0.193336	0.112402	0.966731
	C4217	C	0.097950	0.028940	0.879585
	C4218	C	0.149247	0.056856	0.919450
	N4219	N	0.128135	0.035830	0.900925
	O4220	O	0.175168	0.064174	0.934883
	O4221	O	0.075488	0.011350	0.860076
	C4222	C	0.057311	0.071215	0.881488
	C4223	C	0.043090	0.032876	0.848211
	N4224	N	0.033406	0.048036	0.856968
	O4225	O	0.026205	0.010306	0.822564
	O4226	O	0.054485	0.086924	0.891521
	C4227	C	0.311034	0.145007	0.796991
	C4228	C	0.302622	0.143270	0.810764
	C4229	C	0.283156	0.149499	0.814475
	C4230	C	0.271618	0.156535	0.802980
	C4231	C	0.279518	0.157757	0.788257
	C4232	C	0.299307	0.152231	0.785522
	C4233	C	0.319200	0.135869	0.821720
	C4234	C	0.334453	0.140048	0.800788
	N4235	N	0.337973	0.133994	0.814893
	O4236	O	0.348694	0.141146	0.794474
	O4237	O	0.317733	0.132104	0.834143
	C4238	C	0.255326	0.165592	0.815541
	C4239	C	0.273021	0.152596	0.832922
	N4240	N	0.256343	0.162455	0.832807
	O4241	O	0.278973	0.149293	0.847868
	O4242	O	0.244897	0.175397	0.814535
	C4243	C	0.306352	0.158468	0.774136
	C4244	C	0.271248	0.165676	0.775586
	N4245	N	0.288860	0.166541	0.768771
	O4246	O	0.253704	0.170765	0.771780
	O4247	O	0.323678	0.157921	0.770909
	C4248	C	0.771969	0.407063	0.803702
	C4249	C	0.782828	0.399385	0.814151
	C4250	C	0.802250	0.393106	0.810365
	C4251	C	0.811265	0.395471	0.797621
	C4252	C	0.799113	0.402241	0.785402
	C4253	C	0.779005	0.407450	0.787597
	C4254	C	0.773131	0.402902	0.833276
	C4255	C	0.755395	0.415861	0.815833
	N4256	N	0.756472	0.412781	0.833190
	O4257	O	0.744756	0.425487	0.814524
	O4258	O	0.779337	0.399842	0.848609
	C4259	C	0.834486	0.390304	0.801073
	C4260	C	0.819123	0.386005	0.821812
	N4261	N	0.837955	0.384194	0.815083
	O4262	O	0.817780	0.382357	0.834430
	O4263	O	0.848661	0.391328	0.794638
	C4264	C	0.771161	0.415791	0.775631
	C4265	C	0.806213	0.408522	0.774097
	N4266	N	0.788810	0.416681	0.768873
	O4267	O	0.823506	0.407933	0.770808
	O4268	O	0.753824	0.421096	0.772178
	C4269	C	0.132289	0.445089	0.877279
	C4270	C	0.158800	0.454566	0.888253
	C4271	C	0.173308	0.443127	0.883992
	C4272	C	0.162338	0.422911	0.870407
	C4273	C	0.136580	0.414352	0.861834
	C4274	C	0.121307	0.424984	0.864160
	C4275	C	0.166037	0.476275	0.902107
	C4276	C	0.120836	0.460000	0.882518
	N4277	N	0.142057	0.478286	0.897155
	O4278	O	0.098507	0.457825	0.875954
	O4279	O	0.187382	0.490145	0.915306
	C4280	C	0.183476	0.415445	0.869561
	C4281	C	0.200406	0.448676	0.890758
	N4282	N	0.206206	0.432122	0.882903
	O4283	O	0.214765	0.463600	0.900016
	O4284	O	0.182342	0.398750	0.859236
	C4285	C	0.094592	0.412351	0.852883
	C4286	C	0.119790	0.394402	0.849099
	N4287	N	0.094404	0.393925	0.843556
	O4288	O	0.125902	0.381617	0.845439
	O4289	O	0.076446	0.416619	0.852230
	C4290	C	0.922445	0.056816	0.882014
	C4291	C	0.911112	0.032441	0.858325
	C4292	C	0.881187	0.015987	0.836345
	C4293	C	0.862719	0.023816	0.837695
	C4294	C	0.874312	0.048504	0.861849
	C4295	C	0.904190	0.064901	0.884070
	C4296	C	0.932914	0.027056	0.855555
	C4297	C	0.953398	0.069241	0.899085
	N4298	N	0.957184	0.049562	0.879387
	O4299	O	0.972228	0.091306	0.924412
	O4300	O	0.930649	0.007542	0.835898
	C4301	C	0.832023	0.002116	0.810804
	C4302	C	0.862485	-0.011388	0.807266
	N4303	N	0.833689	-0.018248	0.794181
	O4304	O	0.869618	-0.025406	0.796672
	O4305	O	0.809986	0.001312	0.804149
	C4306	C	0.909752	0.088813	0.904249
	C4307	C	0.859625	0.061644	0.867333
	N4308	N	0.882493	0.086004	0.893649
	O4309	O	0.834101	0.054167	0.853198
	O4310	O	0.932433	0.107282	0.925444
	C4311	C	0.672885	0.192644	0.882946
	C4312	C	0.662423	0.172918	0.870460
	C4313	C	0.636568	0.164279	0.861690
	C4314	C	0.621536	0.175144	0.864521
	C4315	C	0.632850	0.195554	0.878329
	C4316	C	0.658618	0.204303	0.887686
	C4317	C	0.683120	0.165040	0.868716
	C4318	C	0.699974	0.198171	0.889692
	N4319	N	0.705733	0.181585	0.881782
	O4320	O	0.714331	0.213077	0.898922
	O4321	O	0.681799	0.148192	0.858046
	C4322	C	0.595023	0.162711	0.853679
	C4323	C	0.619790	0.144341	0.848983
	N4324	N	0.594652	0.144111	0.843971
	O4325	O	0.625726	0.131373	0.844928
	O4326	O	0.577142	0.167229	0.853574
	C4327	C	0.666160	0.226282	0.902157
	C4328	C	0.621380	0.210445	0.883514
	N4329	N	0.642477	0.228599	0.897862
	O4330	O	0.599141	0.208365	0.877154
	O4331	O	0.687488	0.240105	0.915277
	F4332	F	-0.056080	0.043889	0.827426
	C4333	C	-0.031148	0.046019	0.846909
	C4334	C	-0.013177	0.044798	0.839941
	F4335	F	-0.021069	0.041281	0.813598
	C4336	C	0.013082	0.047325	0.860524
	C4337	C	0.019906	0.049870	0.886468
	F4338	F	0.044265	0.051455	0.905537
	C4339	C	0.002091	0.051240	0.893609
	F4340	F	0.010080	0.055030	0.920306
	C4341	C	-0.023882	0.049047	0.873515
	F4342	F	0.127065	0.493951	0.842947
	C4343	C	0.130096	0.500226	0.870144
	C4344	C	0.130002	0.484342	0.866130
	F4345	F	0.123783	0.461470	0.832069
	C4346	C	0.137200	0.492478	0.897980
	C4347	C	0.141952	0.515739	0.931699
	F4348	F	0.149415	0.524293	0.963100
	C4349	C	0.139267	0.530252	0.933089
	F4350	F	0.142430	0.551689	0.964209
	C4351	C	0.133886	0.522978	0.902787
	F4352	F	0.384627	0.159861	0.894889
	C4353	C	0.380569	0.140382	0.860741
	C4354	C	0.400026	0.133849	0.865983
	F4355	F	0.420715	0.145723	0.903455
	C4356	C	0.398228	0.114978	0.832620
	C4357	C	0.373277	0.100149	0.791195
	F4358	F	0.368463	0.079900	0.756487
	C4359	C	0.353190	0.106061	0.785367
	F4360	F	0.329609	0.091312	0.745124
	C4361	C	0.357144	0.126966	0.820547
	F4362	F	0.265342	0.142065	0.693858
	C4363	C	0.285339	0.169329	0.734630
	C4364	C	0.295801	0.185292	0.740303
	F4365	F	0.285616	0.173251	0.704824
	C4366	C	0.317305	0.213885	0.783201
	C4367	C	0.326171	0.226006	0.819184
	F4368	F	0.345454	0.253279	0.859858
	C4369	C	0.315855	0.210106	0.813534
	F4370	F	0.325306	0.222207	0.848791
	C4371	C	0.296179	0.181634	0.771607
	F4372	F	0.845764	0.503599	0.860528
	C4373	C	0.826324	0.476321	0.819714
	C4374	C	0.815994	0.460341	0.813926
	F4375	F	0.825464	0.472362	0.849130
	C4376	C	0.796246	0.431868	0.771899
	C4377	C	0.785487	0.419655	0.735029
	F4378	F	0.765329	0.392390	0.694126
	C4379	C	0.795991	0.435702	0.740857
	F4380	F	0.785846	0.423748	0.705463
	C4381	C	0.817529	0.464291	0.783835
	F4382	F	0.694889	0.397099	0.795747
	C4383	C	0.720552	0.417132	0.840093
	C4384	C	0.716816	0.429430	0.867248
	F4385	F	0.687251	0.420252	0.848162
	C4386	C	0.743460	0.451012	0.914178
	C4387	C	0.774239	0.461460	0.933964
	F4388	F	0.800473	0.483299	0.979177
	C4389	C	0.777727	0.449041	0.906644
	F4390	F	0.807235	0.459534	0.925906
	C4391	C	0.751055	0.425712	0.859142
	F4392	F	0.271544	0.477639	0.967216
	C4393	C	0.263482	0.456611	0.929457
	C4394	C	0.287495	0.458773	0.932803
	F4395	F	0.318356	0.482052	0.973521
	C4396	C	0.279804	0.436598	0.894093
	C4397	C	0.247278	0.412696	0.851697
	F4398	F	0.239218	0.391142	0.814108
	C4399	C	0.223188	0.410870	0.848208
	F4400	F	0.192294	0.387796	0.807280
	C4401	C	0.230872	0.432723	0.886970
	F4402	F	0.649953	0.274683	0.963947
	C4403	C	0.642477	0.266121	0.932533
	C4404	C	0.639647	0.280561	0.933794
	F4405	F	0.642816	0.302001	0.964920
	C4406	C	0.634147	0.273231	0.903387
	C4407	C	0.630208	0.250404	0.870611
	F4408	F	0.627156	0.244106	0.843382
	C4409	C	0.630232	0.234580	0.866711
	F4410	F	0.623924	0.211667	0.832575
	C4411	C	0.637591	0.242793	0.898699
	F4412	F	0.530101	0.093850	0.760194
	C4413	C	0.543079	0.109080	0.799175
	C4414	C	0.523603	0.101850	0.798813
	F4415	F	0.491944	0.080093	0.759610
	C4416	C	0.536804	0.117218	0.839087
	C4417	C	0.570097	0.139452	0.879109
	F4418	F	0.583551	0.154202	0.917894
	C4419	C	0.589468	0.146884	0.879673
	F4420	F	0.621225	0.168494	0.918909
	C4421	C	0.576040	0.132453	0.840085
	C4422	C	0.466802	0.090654	0.856483
	C4423	C	0.488038	0.089575	0.854586
	C4424	C	0.496289	0.098643	0.848947
	C4425	C	0.483586	0.109029	0.845752
	C4426	C	0.461033	0.109041	0.845680
	C4427	C	0.452643	0.099929	0.851004
	C4428	C	0.497303	0.076841	0.857553
	C4429	C	0.462212	0.078955	0.861539
	N4430	N	0.481090	0.070865	0.861684
	O4431	O	0.446196	0.076316	0.864845
	O4432	O	0.513936	0.071199	0.855071
	C4433	C	0.497491	0.117657	0.841175
	C4434	C	0.518595	0.100203	0.846499
	N4435	N	0.517858	0.111262	0.840814
	O4436	O	0.534575	0.093711	0.848946
	O4437	O	0.493865	0.128676	0.839531
	C4438	C	0.426984	0.101118	0.847186
	C4439	C	0.442822	0.118125	0.841549
	N4440	N	0.421874	0.112033	0.841051
	O4441	O	0.444670	0.128771	0.839281
	O4442	O	0.412516	0.094311	0.848285
	C4443	C	0.380705	0.265330	0.835045
	C4444	C	0.362578	0.273459	0.837288
	C4445	C	0.373933	0.297930	0.860826
	C4446	C	0.403653	0.314179	0.882638
	C4447	C	0.422450	0.306583	0.881937
	C4448	C	0.410896	0.282016	0.857700
	C4449	C	0.331735	0.251629	0.810009
	C4450	C	0.362177	0.238107	0.806416
	N4451	N	0.333400	0.231267	0.793387
	O4452	O	0.369399	0.224166	0.796050
	O4453	O	0.309630	0.250768	0.803174
	C4454	C	0.409381	0.338259	0.903280
	C4455	C	0.359222	0.311048	0.866274
	N4456	N	0.382100	0.335426	0.892637
	O4457	O	0.333680	0.303547	0.852088
	O4458	O	0.432165	0.356845	0.924775
	C4459	C	0.432735	0.276674	0.854977
	C4460	C	0.453246	0.318911	0.898663
	N4461	N	0.457036	0.299236	0.878932
	O4462	O	0.471991	0.340935	0.923839
	O4463	O	0.430473	0.257154	0.835274
	C4464	C	0.690441	0.475886	0.982863
	C4465	C	0.700583	0.482202	0.975095
	C4466	C	0.718526	0.475656	0.967925
	C4467	C	0.727719	0.464265	0.971142
	C4468	C	0.720547	0.460595	0.983874
	C4469	C	0.701185	0.465622	0.988411
	C4470	C	0.685602	0.492516	0.970241
	C4471	C	0.667022	0.480731	0.980851
	N4472	N	0.664646	0.490236	0.972234
	O4473	O	0.651822	0.476907	0.984098
	O4474	O	0.689619	0.501130	0.965350
	C4475	C	0.741446	0.455094	0.954119
	C4476	C	0.727281	0.475282	0.950613
	N4477	N	0.739418	0.461384	0.940708
	O4478	O	0.724382	0.483881	0.944364
	O4479	O	0.750666	0.443083	0.949017
	C4480	C	0.692925	0.455190	0.993847
	C4481	C	0.727198	0.448670	0.989440
	N4482	N	0.709059	0.445028	0.993841
	O4483	O	0.744793	0.443526	0.991258
	O4484	O	0.675899	0.454690	0.997153
	C4485	C	0.372191	0.421661	0.886775
	C4486	C	0.354591	0.429127	0.881081
	C4487	C	0.338252	0.432400	0.891325
	C4488	C	0.339984	0.428033	0.906883
	C4489	C	0.357814	0.420660	0.912681
	C4490	C	0.374479	0.418009	0.903580
	C4491	C	0.358282	0.432406	0.864452
	C4492	C	0.384693	0.417191	0.869822
	N4493	N	0.375757	0.424019	0.856833
	O4494	O	0.399332	0.409167	0.866826
	O4495	O	0.349669	0.441088	0.859332
	C4496	C	0.318519	0.430262	0.911383
	C4497	C	0.316026	0.438753	0.887040
	N4498	N	0.304536	0.436535	0.898812
	O4499	O	0.308441	0.444444	0.875908
	O4500	O	0.312665	0.426993	0.922329
	C4501	C	0.389995	0.408754	0.910790
	C4502	C	0.360971	0.412324	0.924458
	N4503	N	0.380039	0.404830	0.921829
	O4504	O	0.349331	0.410749	0.932916
	O4505	O	0.407222	0.404693	0.907903
	C4506	C	0.577297	0.299898	0.875521
	C4507	C	0.585396	0.321688	0.892640
	C4508	C	0.616204	0.339652	0.917761
	C4509	C	0.638747	0.336215	0.926740
	C4510	C	0.631499	0.315893	0.913840
	C4511	C	0.600678	0.298045	0.888280
	C4512	C	0.557303	0.321081	0.881270
	C4513	C	0.543123	0.282764	0.848067
	N4514	N	0.533446	0.297932	0.856842
	O4515	O	0.526313	0.260280	0.822684
	O4516	O	0.554441	0.336762	0.891242
	C4517	C	0.668575	0.358207	0.952800
	C4518	C	0.630432	0.363307	0.936905
	N4519	N	0.661844	0.373730	0.957554
	O4520	O	0.618408	0.372282	0.935311
	O4521	O	0.693515	0.362571	0.967120
	C4522	C	0.598181	0.279160	0.880127
	C4523	C	0.649465	0.307076	0.919974
	N4524	N	0.628383	0.286082	0.901522
	O4525	O	0.675395	0.314409	0.935433
	O4526	O	0.575676	0.261474	0.860423
	F4527	F	0.434961	-0.014915	0.775992
	C4528	C	0.458031	0.012433	0.816573
	C4529	C	0.456536	0.027573	0.819083
	F4530	F	0.431322	0.014752	0.781336
	C4531	C	0.480982	0.056082	0.860582
	C4532	C	0.505828	0.069206	0.900167
	F4533	F	0.528879	0.096535	0.940571
	C4534	C	0.506701	0.054156	0.897961
	F4535	F	0.530102	0.067254	0.936506
	C4536	C	0.483365	0.025484	0.855968
	F4537	F	0.345811	0.316604	0.821884
	C4538	C	0.360902	0.342229	0.863042
	C4539	C	0.361880	0.359930	0.871075
	F4540	F	0.346860	0.350872	0.836987
	C4541	C	0.378848	0.387170	0.914576
	C4542	C	0.392791	0.395723	0.948931
	F4543	F	0.408416	0.421472	0.990301
	C4544	C	0.390506	0.377567	0.940214
	F4545	F	0.402019	0.385250	0.972103
	C4546	C	0.376461	0.351284	0.898181
	F4547	F	0.478987	0.291189	0.813486
	C4548	C	0.486859	0.294687	0.839801
	C4549	C	0.468843	0.295858	0.846692
	F4550	F	0.443916	0.293727	0.827200
	C4551	C	0.476047	0.298815	0.873199
	C4552	C	0.502101	0.301122	0.893453
	F4553	F	0.509960	0.304749	0.919927
	C4554	C	0.519991	0.299843	0.886446
	F4555	F	0.544318	0.301388	0.905465
	C4556	C	0.513133	0.297237	0.860420
	F4557	F	0.657731	0.525876	1.026828
	C4558	C	0.636734	0.508662	0.984382
	C4559	C	0.611109	0.507732	0.967083
	F4560	F	0.607088	0.523411	0.992369
	C4561	C	0.589352	0.490581	0.923321
	C4562	C	0.595137	0.475662	0.898737
	F4563	F	0.577208	0.461757	0.859464
	C4564	C	0.618786	0.474690	0.914096
	F4565	F	0.620514	0.457245	0.886405
	C4566	C	0.640273	0.491354	0.957425
	F4567	F	0.699034	0.430535	1.042780
	C4568	C	0.695816	0.420935	1.012645
	C4569	C	0.707980	0.438642	1.021848
	F4570	F	0.724747	0.465406	1.062073
	C4571	C	0.702407	0.428667	0.989149
	C4572	C	0.687877	0.401186	0.949544
	F4573	F	0.683807	0.391395	0.918783
	C4574	C	0.677248	0.383820	0.941432
	F4575	F	0.663826	0.357727	0.903649
	C4576	C	0.679599	0.393090	0.971740
	F4577	F	0.337282	0.393515	0.772203
	C4578	C	0.369440	0.412510	0.805825
	C4579	C	0.383741	0.417245	0.799187
	F4580	F	0.365272	0.402242	0.758836
	C4581	C	0.417297	0.437697	0.834469
	C4582	C	0.436104	0.452467	0.875768
	F4583	F	0.468109	0.473056	0.911211
	C4584	C	0.422100	0.445989	0.880677
	F4585	F	0.441408	0.458217	0.918493
	C4586	C	0.388510	0.427200	0.847167
	C4587	C	0.508326	0.471038	0.866715
	C4588	C	0.520392	0.486406	0.872165
	C4589	C	0.502644	0.492167	0.861050
	C4590	C	0.474197	0.483950	0.847488
	C4591	C	0.461773	0.468022	0.841275
	C4592	C	0.478421	0.461061	0.849805
	C4593	C	0.554047	0.496398	0.895054
	C4594	C	0.532656	0.469053	0.882820
	N4595	N	0.560387	0.485940	0.901874
	O4596	O	0.530711	0.456073	0.880912
	O4597	O	0.573364	0.511190	0.907647
	C4598	C	0.462385	0.495296	0.842614
	C4599	C	0.509510	0.508456	0.864092
	N4600	N	0.484851	0.510167	0.853636
	O4601	O	0.530750	0.517949	0.872332
	O4602	O	0.438997	0.493167	0.832012
	C4603	C	0.459717	0.444119	0.840369
	C4604	C	0.433382	0.457910	0.830255
	N4605	N	0.433470	0.443665	0.830258
	O4606	O	0.414283	0.461268	0.823948
	O4607	O	0.464730	0.432822	0.841128
	C4608	C	0.047624	0.650297	0.024488
	C4609	C	0.039364	0.641329	0.030064
	C4610	C	0.017168	0.641719	0.030665
	C4611	C	0.003779	0.651403	0.026195
	C4612	C	0.012255	0.660690	0.020958
	C4613	C	0.033746	0.659863	0.019528
	C4614	C	0.057612	0.632283	0.034268
	C4615	C	0.073173	0.648990	0.028091
	N4616	N	0.078373	0.638168	0.034390
	O4617	O	0.087491	0.655638	0.026701
	O4618	O	0.055919	0.621806	0.036848
	C4619	C	-0.018243	0.650144	0.029170
	C4620	C	0.002988	0.632829	0.034754
	N4621	N	-0.017400	0.639205	0.035072
	O4622	O	0.006465	0.621671	0.036138
	O4623	O	-0.034135	0.656722	0.026865
	C4624	C	0.037866	0.671074	0.013594
	C4625	C	0.002768	0.673197	0.017567
	N4626	N	0.018861	0.679038	0.013203
	O4627	O	-0.013918	0.678794	0.019943
	O4628	O	0.053687	0.673508	0.009927
	F4629	F	0.079282	0.604369	-0.028282
	C4630	C	0.100084	0.616269	0.009214
	C4631	C	0.119387	0.609581	0.014217
	F4632	F	0.115306	0.590136	-0.019967
	C4633	C	0.142889	0.622981	0.054383
	C4634	C	0.146955	0.643923	0.089681
	F4635	F	0.170556	0.658605	0.129856
	C4636	C	0.126959	0.649936	0.084037
	F4637	F	0.131912	0.670246	0.118876
	C4638	C	0.101954	0.635143	0.042659
	F4639	F	0.064715	0.764651	0.098446
	C4640	C	0.041659	0.737302	0.057932
	C4641	C	0.043290	0.722226	0.055534
	F4642	F	0.068441	0.735134	0.093406
	C4643	C	0.018876	0.693719	0.014106
	C4644	C	-0.005951	0.680513	-0.025578
	F4645	F	-0.029046	0.653192	-0.065893
	C4646	C	-0.006888	0.695495	-0.023509
	F4647	F	-0.030390	0.682335	-0.062103
	C4648	C	0.016353	0.724171	0.018437
	F4649	F	1.008692	0.670367	0.116348
	C4650	C	0.977001	0.648688	0.077233
	C4651	C	0.957623	0.641399	0.076914
	F4652	F	0.970671	0.656643	0.115932
	C4653	C	0.924624	0.618100	0.036085
	C4654	C	0.911105	0.603731	-0.003488
	F4655	F	0.879326	0.582171	-0.042658
	C4656	C	0.930396	0.611177	-0.002988
	F4657	F	0.916821	0.596526	-0.041743
	C4658	C	0.963719	0.633321	0.036928
	C4659	C	0.188440	0.604332	0.076902
	C4660	C	0.197545	0.606805	0.064326
	C4661	C	0.216949	0.600515	0.060499
	C4662	C	0.227737	0.592746	0.070789
	C4663	C	0.220577	0.592208	0.086666
	C4664	C	0.200161	0.597096	0.088345
	C4665	C	0.180840	0.614092	0.053190
	C4666	C	0.165271	0.609556	0.073552
	N4667	N	0.161967	0.615849	0.059843
	O4668	O	0.151016	0.608440	0.079839
	O4669	O	0.182317	0.617892	0.040817
	C4670	C	0.244462	0.584104	0.058879
	C4671	C	0.226764	0.597141	0.041578
	N4672	N	0.243464	0.587293	0.041689
	O4673	O	0.220589	0.600262	0.026338
	O4674	O	0.255148	0.574504	0.060214
	C4675	C	0.193437	0.591170	0.100267
	C4676	C	0.228416	0.583838	0.098580
	N4677	N	0.210842	0.583002	0.105455
	O4678	O	0.245700	0.578474	0.101913
	O4679	O	0.176384	0.591991	0.103979
	C4680	C	-0.020764	0.763104	0.001971
	C4681	C	-0.008275	0.779118	0.008635
	C4682	C	0.021652	0.789112	0.025592
	C4683	C	0.037837	0.781534	0.032946
	C4684	C	0.025844	0.766168	0.027812
	C4685	C	-0.002835	0.757639	0.013652
	C4686	C	-0.032745	0.780858	-0.007949
	C4687	C	-0.054331	0.753270	-0.020662
	N4688	N	-0.060583	0.763819	-0.027319
	O4689	O	-0.073674	0.738488	-0.033262
	O4690	O	-0.030806	0.793807	-0.006101
	C4691	C	0.066465	0.791949	0.044545
	C4692	C	0.040179	0.805808	0.034559
	N4693	N	0.066399	0.806226	0.044605
	O4694	O	0.035083	0.816999	0.033591
	O4695	O	0.085703	0.788754	0.051162
	C4696	C	-0.009800	0.741212	0.010347
	C4697	C	0.037327	0.754386	0.031838
	N4698	N	0.014822	0.739454	0.020702
	O4699	O	0.060536	0.756285	0.041985
	O4700	O	-0.031065	0.731674	0.002034
	C4701	C	0.827053	0.557252	-0.008278
	C4702	C	0.838086	0.577500	0.005391
	C4703	C	0.864096	0.586277	0.014481
	C4704	C	0.878812	0.575112	0.010990
	C4705	C	0.868033	0.555227	-0.001638
	C4706	C	0.841546	0.545801	-0.012538
	C4707	C	0.817056	0.585070	0.006427
	C4708	C	0.799912	0.551686	-0.015123
	N4709	N	0.794220	0.568329	-0.007096
	O4710	O	0.785441	0.536686	-0.024567
	O4711	O	0.818329	0.601873	0.016990
	C4712	C	0.905804	0.588005	0.022848
	C4713	C	0.880650	0.605991	0.026708
	N4714	N	0.906019	0.606455	0.032221
	O4715	O	0.874413	0.618651	0.030106
	O4716	O	0.924094	0.583874	0.023811
	C4717	C	0.834273	0.524092	-0.026394
	C4718	C	0.879339	0.540185	-0.007140
	N4719	N	0.858155	0.521974	-0.021635
	O4720	O	0.901541	0.542218	-0.000854
	O4721	O	0.812958	0.510289	-0.039475
	F4722	F	0.174205	0.527314	0.025294
	C4723	C	0.183784	0.539404	0.060599
	C4724	C	0.173369	0.523474	0.054863
	F4725	F	0.153984	0.496195	0.014125
	C4726	C	0.182270	0.535578	0.090848
	C4727	C	0.203837	0.564172	0.133791
	F4728	F	0.214051	0.576191	0.169265
	C4729	C	0.214298	0.580157	0.139502
	F4730	F	0.234468	0.607428	0.180367
	C4731	C	0.203482	0.567877	0.102555
	F4732	F	0.192714	0.540599	-0.050989
	C4733	C	0.222218	0.551114	-0.031735
	C4734	C	0.225691	0.538638	-0.059085
	F4735	F	0.199455	0.516791	-0.104299
	C4736	C	0.256464	0.549056	-0.039316
	C4737	C	0.283108	0.570629	0.007612
	F4738	F	0.312671	0.579798	0.026692
	C4739	C	0.279371	0.582900	0.034757
	F4740	F	0.305047	0.602970	0.079122
	C4741	C	0.248889	0.574389	0.015748
	F4742	F	0.892693	0.726387	-0.117793
	C4743	C	0.888667	0.742041	-0.092502
	C4744	C	0.863148	0.741235	-0.109665
	F4745	F	0.842070	0.723967	-0.152159
	C4746	C	0.859623	0.758540	-0.082681
	C4747	C	0.881143	0.775206	-0.039348
	F4748	F	0.879470	0.792685	-0.011596
	C4749	C	0.904763	0.774195	-0.024051
	F4750	F	0.922735	0.788108	0.015238
	C4751	C	0.910483	0.759225	-0.048709
	F4752	F	0.134633	0.847726	0.116314
	C4753	C	0.116290	0.832774	0.076026
	C4754	C	0.130719	0.837717	0.069692
	F4755	F	0.162896	0.856681	0.103390
	C4756	C	0.111779	0.823093	0.028429
	C4757	C	0.078174	0.804290	-0.005193
	F4758	F	0.058990	0.792165	-0.042897
	C4759	C	0.064026	0.797691	-0.000519
	F4760	F	0.032005	0.777104	-0.036064
	C4761	C	0.082708	0.812336	0.040648
	F4762	F	0.876397	0.538677	0.043333
	C4763	C	0.870026	0.515749	0.009119
	C4764	C	0.869990	0.499865	0.005100
	F4765	F	0.872950	0.506073	0.032204
	C4766	C	0.866068	0.477056	-0.027688
	C4767	C	0.860672	0.469813	-0.057968
	F4768	F	0.857385	0.448323	-0.089227
	C4769	C	0.858083	0.484405	-0.056430
	F4770	F	0.850623	0.475889	-0.087796
	C4771	C	0.862919	0.507698	-0.022614
	F4772	F	0.807953	0.612666	0.068375
	C4773	C	0.777080	0.589572	0.027376
	C4774	C	0.752922	0.587665	0.023752
	F4775	F	0.760878	0.609202	0.061245
	C4776	C	0.720427	0.563707	-0.018689
	C4777	C	0.712838	0.541545	-0.057299
	F4778	F	0.682006	0.518227	-0.098063
	C4779	C	0.736927	0.543746	-0.053801
	F4780	F	0.728941	0.522765	-0.091502
	C4781	C	0.769504	0.567698	-0.011275
	C4782	C	0.118793	0.484086	0.038836
	C4783	C	0.137245	0.476242	0.037450
	C4784	C	0.125860	0.451754	0.013866
	C4785	C	0.095848	0.435229	-0.008715
	C4786	C	0.077605	0.443328	-0.006635
	C4787	C	0.088922	0.467685	0.016999
	C4788	C	0.167883	0.497882	0.064181
	C4789	C	0.137399	0.511371	0.067648
	N4790	N	0.166159	0.518189	0.080641
	O4791	O	0.130224	0.525350	0.078115
	O4792	O	0.189927	0.498691	0.070856
	C4793	C	0.090238	0.411265	-0.029035
	C4794	C	0.140278	0.438353	0.007654
	N4795	N	0.117397	0.413975	-0.018710
	O4796	O	0.165643	0.445672	0.021356
	O4797	O	0.067599	0.392832	-0.050128
	C4798	C	0.067132	0.473085	0.019783
	C4799	C	0.046632	0.430900	-0.023744
	N4800	N	0.042840	0.450575	-0.004073
	O4801	O	0.027799	0.408838	-0.049063
	O4802	O	0.069424	0.492613	0.039473
	C4803	C	0.309527	0.524057	-0.108127
	C4804	C	0.300016	0.518393	-0.099227
	C4805	C	0.282057	0.524925	-0.092096
	C4806	C	0.272133	0.535663	-0.096458
	C4807	C	0.280164	0.540076	-0.107861
	C4808	C	0.299525	0.535047	-0.112392
	C4809	C	0.314527	0.507634	-0.095147
	C4810	C	0.333098	0.519357	-0.105829
	N4811	N	0.335397	0.509793	-0.097314
	O4812	O	0.348413	0.523283	-0.108876
	O4813	O	0.310278	0.498829	-0.090616
	C4814	C	0.258584	0.545010	-0.079164
	C4815	C	0.272777	0.524875	-0.075550
	N4816	N	0.260510	0.538669	-0.065849
	O4817	O	0.275440	0.516098	-0.069622
	O4818	O	0.249527	0.557142	-0.073869
	C4819	C	0.307228	0.544948	-0.118799
	C4820	C	0.272953	0.551459	-0.114390
	N4821	N	0.290945	0.554974	-0.119040
	O4822	O	0.255113	0.556349	-0.116635
	O4823	O	0.324017	0.545225	-0.122521
	C4824	C	0.772239	0.785706	-0.096309
	C4825	C	0.781464	0.774357	-0.093009
	C4826	C	0.799369	0.767766	-0.100236
	C4827	C	0.809446	0.774003	-0.108136
	C4828	C	0.798677	0.784233	-0.113752
	C4829	C	0.779348	0.789297	-0.109164
	C4830	C	0.772787	0.774832	-0.075549
	C4831	C	0.758561	0.794940	-0.079216
	N4832	N	0.760664	0.788743	-0.065655
	O4833	O	0.749340	0.806943	-0.074149
	O4834	O	0.775730	0.766296	-0.069192
	C4835	C	0.832840	0.769129	-0.106164
	C4836	C	0.814369	0.757478	-0.095331
	N4837	N	0.835267	0.759687	-0.097439
	O4838	O	0.810404	0.748928	-0.090328
	O4839	O	0.847976	0.772879	-0.109536
	C4840	C	0.772663	0.801178	-0.114811
	C4841	C	0.806883	0.794598	-0.119305
	N4842	N	0.790756	0.804766	-0.119298
	O4843	O	0.823875	0.795059	-0.122672
	O4844	O	0.755066	0.806321	-0.116640
	C4845	C	0.125808	0.832207	-0.028061
	C4846	C	0.142428	0.829503	-0.037239
	C4847	C	0.160694	0.822584	-0.030679
	C4848	C	0.161899	0.817681	-0.016001
	C4849	C	0.145964	0.821375	-0.005090
	C4850	C	0.128653	0.829119	-0.010348
	C4851	C	0.139084	0.837639	-0.049352
	C4852	C	0.110088	0.841251	-0.035635
	N4853	N	0.119895	0.845018	-0.046939
	O4854	O	0.092828	0.845283	-0.032809
	O4855	O	0.150673	0.839150	-0.057910
	C4856	C	0.184374	0.811585	-0.011288
	C4857	C	0.181717	0.819886	-0.035940
	N4858	N	0.195747	0.813670	-0.023275
	O4859	O	0.187273	0.822829	-0.047418
	O4860	O	0.192170	0.806124	0.000222
	C4861	C	0.115786	0.833255	0.006042
	C4862	C	0.142184	0.818039	0.011430
	N4863	N	0.124665	0.826390	0.018974
	O4864	O	0.150765	0.809335	0.016515
	O4865	O	0.100965	0.841111	0.008737
	C4866	C	0.922732	0.450122	-0.000485
	C4867	C	0.914888	0.428692	-0.016720
	C4868	C	0.884058	0.410704	-0.041906
	C4869	C	0.861251	0.413766	-0.051770
	C4870	C	0.868878	0.434683	-0.037514
	C4871	C	0.899731	0.452593	-0.011822
	C4872	C	0.942718	0.428981	-0.006108
	C4873	C	0.956988	0.467348	0.027238
	N4874	N	0.966598	0.452123	0.018325
	O4875	O	0.973875	0.489893	0.052820
	O4876	O	0.945392	0.413115	-0.016538
	C4877	C	0.831431	0.391795	-0.077792
	C4878	C	0.869555	0.386677	-0.061926
	N4879	N	0.838067	0.376152	-0.082821
	O4880	O	0.881457	0.377536	-0.060710
	O4881	O	0.806548	0.387513	-0.091933
	C4882	C	0.902063	0.471201	-0.004272
	C4883	C	0.850715	0.443196	-0.044315
	N4884	N	0.871810	0.464187	-0.025858
	O4885	O	0.824642	0.435668	-0.060208
	O4886	O	0.924520	0.488804	0.015251
	C4887	C	0.659795	0.571770	-0.032312
	C4888	C	0.661660	0.567560	-0.016503
	C4889	C	0.645186	0.570710	-0.006478
	C4890	C	0.627411	0.577992	-0.012483
	C4891	C	0.625358	0.581843	-0.028955
	C4892	C	0.641434	0.578595	-0.039031
	C4893	C	0.684160	0.561498	-0.011731
	C4894	C	0.681311	0.569588	-0.036724
	N4895	N	0.695600	0.563654	-0.023597
	O4896	O	0.686986	0.572656	-0.047996
	O4897	O	0.691972	0.556056	-0.000189
	C4898	C	0.614960	0.582534	0.004563
	C4899	C	0.641507	0.567460	0.010190
	N4900	N	0.623957	0.575781	0.017680
	O4901	O	0.650171	0.558832	0.015406
	O4902	O	0.600326	0.590562	0.007545
	C4903	C	0.638529	0.587161	-0.050417
	C4904	C	0.609277	0.590522	-0.037138
	N4905	N	0.619286	0.594491	-0.048094
	O4906	O	0.591665	0.594198	-0.034916
	O4907	O	0.650435	0.588982	-0.058437
	F4908	F	-0.044187	0.448779	-0.030133
	C4909	C	-0.019880	0.450298	-0.011151
	C4910	C	-0.002108	0.448854	-0.018380
	F4911	F	-0.010002	0.445176	-0.044923
	C4912	C	0.023893	0.451092	0.001783
	C4913	C	0.031150	0.454123	0.028390
	F4914	F	0.056113	0.456301	0.047947
	C4915	C	0.013120	0.455277	0.035253
	F4916	F	0.021063	0.458885	0.061715
	C4917	C	-0.013086	0.452820	0.014756
	F4918	F	0.097571	0.864097	-0.098022
	C4919	C	0.109206	0.871934	-0.065941
	C4920	C	0.106947	0.853867	-0.074456
	F4921	F	0.091319	0.828080	-0.115769
	C4922	C	0.120959	0.862557	-0.039940
	C4923	C	0.137899	0.889826	0.003484
	F4924	F	0.153032	0.899034	0.037749
	C4925	C	0.138697	0.907391	0.011235
	F4926	F	0.153837	0.933069	0.052358
	C4927	C	0.123133	0.898216	-0.024038
	F4928	F	0.379470	0.542744	-0.011512
	C4929	C	0.381143	0.525242	-0.039250
	C4930	C	0.404822	0.524305	-0.023844
	F4931	F	0.422751	0.538225	0.015444
	C4932	C	0.410614	0.509384	-0.048415
	C4933	C	0.388893	0.492255	-0.092157
	F4934	F	0.392910	0.476562	-0.117440
	C4935	C	0.363334	0.491389	-0.109415
	F4936	F	0.342314	0.474138	-0.151891
	C4937	C	0.359740	0.508649	-0.082513
	F4938	F	0.275212	0.534445	-0.187451
	C4939	C	0.291810	0.561188	-0.147363
	C4940	C	0.304013	0.578872	-0.138187
	F4941	F	0.300739	0.569227	-0.168388
	C4942	C	0.320069	0.606691	-0.097426
	C4943	C	0.322326	0.615972	-0.067168
	F4944	F	0.335563	0.642023	-0.029554
	C4945	C	0.311805	0.598666	-0.075140
	F4946	F	0.315841	0.608495	-0.044370
	C4947	C	0.297428	0.571217	-0.114598
	F4948	F	0.836112	0.892112	-0.028953
	C4949	C	0.822565	0.865990	-0.066847
	C4950	C	0.811987	0.848625	-0.074942
	F4951	F	0.816100	0.858416	-0.044156
	C4952	C	0.797430	0.821140	-0.114579
	C4953	C	0.791848	0.811179	-0.147271
	F4954	F	0.775024	0.784409	-0.187543
	C4955	C	0.804095	0.828915	-0.137987
	F4956	F	0.800777	0.819310	-0.168185
	C4957	C	0.820275	0.856750	-0.097096
	F4958	F	0.699656	0.766916	-0.103983
	C4959	C	0.725919	0.788806	-0.058755
	C4960	C	0.722482	0.801341	-0.031354
	F4961	F	0.692988	0.790844	-0.050572
	C4962	C	0.749178	0.824646	0.016139
	C4963	C	0.779657	0.833175	0.035127
	F4964	F	0.805334	0.853195	0.079462
	C4965	C	0.783358	0.820852	0.007931
	F4966	F	0.812892	0.829927	0.026940
	C4967	C	0.756678	0.799200	-0.039035
	F4968	F	0.261112	0.859071	0.061312
	C4969	C	0.252973	0.837473	0.023662
	C4970	C	0.276985	0.839272	0.026994
	F4971	F	0.307896	0.862334	0.067867
	C4972	C	0.269225	0.817328	-0.011814
	C4973	C	0.236602	0.793433	-0.054217
	F4974	F	0.228452	0.772335	-0.092040
	C4975	C	0.212657	0.791346	-0.057428
	F4976	F	0.181806	0.768025	-0.098027
	C4977	C	0.220436	0.813564	-0.018648
	F4978	F	0.652219	0.648326	0.036709
	C4979	C	0.637455	0.639419	0.002824
	C4980	C	0.638388	0.657159	0.010961
	F4981	F	0.653428	0.682743	0.052132
	C4982	C	0.623101	0.648271	-0.023957
	C4983	C	0.609207	0.622066	-0.065937
	F4984	F	0.597963	0.614551	-0.097582
	C4985	C	0.606815	0.603819	-0.074844
	F4986	F	0.591299	0.578128	-0.116199
	C4987	C	0.620542	0.612221	-0.040696
	F4988	F	0.558315	0.541586	-0.043923
	C4989	C	0.577658	0.553789	-0.006130
	C4990	C	0.563686	0.547389	-0.001113
	F4991	F	0.531680	0.526820	-0.036510
	C4992	C	0.582527	0.562183	0.040212
	C4993	C	0.616075	0.582646	0.075474
	F4994	F	0.634576	0.597657	0.115837
	C4995	C	0.630333	0.587403	0.068821
	F4996	F	0.662493	0.606350	0.102378
	C4997	C	0.611238	0.572634	0.027406
	C4998	C	0.497232	0.507644	0.013587
	C4999	C	0.525640	0.515821	0.027056
	C5000	C	0.537857	0.531506	0.032790
	C5001	C	0.521686	0.539118	0.025517
	C5002	C	0.491604	0.528870	0.008107
	C5003	C	0.479497	0.513432	0.002528
	C5004	C	0.537377	0.504360	0.031698
	C5005	C	0.490398	0.491369	0.010578
	N5006	N	0.515003	0.489587	0.020878
	O5007	O	0.469223	0.481936	0.002471
	O5008	O	0.560656	0.506350	0.042016
	C5009	C	0.540185	0.555810	0.034461
	C5010	C	0.566468	0.541922	0.044364
	N5011	N	0.566389	0.556215	0.044453
	O5012	O	0.585698	0.538716	0.050938
	O5013	O	0.535080	0.567014	0.033524
	C5014	C	0.445837	0.503436	-0.020369
	C5015	C	0.467352	0.530985	-0.007747
	N5016	N	0.439569	0.514013	-0.026970
	O5017	O	0.469378	0.544107	-0.005565
	O5018	O	0.426472	0.488562	-0.033119
	C5019	C	0.383760	0.660430	-0.042686
	C5020	C	0.361256	0.663910	-0.051600
	C5021	C	0.368785	0.684596	-0.037877
	C5022	C	0.399530	0.702263	-0.012663
	C5023	C	0.422866	0.700359	0.000028
	C5024	C	0.414809	0.678684	-0.016803
	C5025	C	0.331270	0.641742	-0.078111
	C5026	C	0.369346	0.636573	-0.062313
	N5027	N	0.337864	0.626068	-0.083193
	O5028	O	0.381297	0.627519	-0.060874
	O5029	O	0.306313	0.637362	-0.092511
	C5030	C	0.402049	0.721100	-0.004617
	C5031	C	0.350706	0.693186	-0.044560
	N5032	N	0.371855	0.714189	-0.026048
	O5033	O	0.324662	0.685723	-0.060371
	O5034	O	0.424572	0.738748	0.015044
	C5035	C	0.442593	0.678917	-0.006305
	C5036	C	0.456981	0.717367	0.027238
	N5037	N	0.466494	0.702062	0.018151
	O5038	O	0.473863	0.739856	0.052663
	O5039	O	0.445225	0.663015	-0.016817
	C5040	C	0.688660	0.854524	0.077169
	C5041	C	0.697818	0.857050	0.064681
	C5042	C	0.717260	0.850796	0.060915
	C5043	C	0.728039	0.843020	0.071193
	C5044	C	0.720831	0.842435	0.086994
	C5045	C	0.700368	0.847276	0.088592
	C5046	C	0.681078	0.864301	0.053486
	C5047	C	0.665448	0.859701	0.073743
	N5048	N	0.662145	0.865997	0.060038
	O5049	O	0.651165	0.858555	0.079980
	O5050	O	0.682559	0.868107	0.041122
	C5051	C	0.744783	0.834394	0.059313
	C5052	C	0.727123	0.847462	0.042061
	N5053	N	0.743794	0.837588	0.042133
	O5054	O	0.721014	0.850637	0.026909
	O5055	O	0.755470	0.824795	0.060649
	C5056	C	0.693570	0.841278	0.100388
	C5057	C	0.728645	0.834042	0.098871
	N5058	N	0.711004	0.833141	0.105632
	O5059	O	0.745955	0.828706	0.102257
	O5060	O	0.676439	0.842019	0.103961
	C5061	C	0.378168	0.824506	0.009678
	C5062	C	0.363089	0.835328	0.012439
	C5063	C	0.337153	0.826586	0.003483
	C5064	C	0.326634	0.806776	-0.009184
	C5065	C	0.340661	0.794892	-0.014465
	C5066	C	0.366789	0.804006	-0.004323
	C5067	C	0.379998	0.855421	0.025474
	C5068	C	0.404880	0.837156	0.020968
	N5069	N	0.405274	0.855797	0.030770
	O5070	O	0.422877	0.832753	0.021296
	O5071	O	0.374059	0.868397	0.029553
	C5072	C	0.299486	0.801173	-0.016058
	C5073	C	0.316498	0.834497	0.005343
	N5074	N	0.293815	0.817859	-0.007909
	O5075	O	0.317890	0.851425	0.016203
	O5076	O	0.285023	0.786137	-0.025552
	C5077	C	0.378395	0.789240	-0.009253
	C5078	C	0.333486	0.773230	-0.028210
	N5079	N	0.357342	0.771098	-0.023551
	O5080	O	0.312277	0.759484	-0.041113
	O5081	O	0.400695	0.791394	-0.002759
	C5082	C	0.577569	0.693402	-0.006747
	C5083	C	0.589323	0.718096	0.017864
	C5084	C	0.619214	0.734492	0.039728
	C5085	C	0.637273	0.726296	0.037375
	C5086	C	0.626128	0.702056	0.014494
	C5087	C	0.596282	0.685723	-0.007611
	C5088	C	0.567259	0.723295	0.020060
	C5089	C	0.546724	0.681079	-0.023554
	N5090	N	0.542894	0.700729	-0.003957
	O5091	O	0.527964	0.659067	-0.048708
	O5092	O	0.569437	0.742751	0.039534
	C5093	C	0.667995	0.747980	0.064277
	C5094	C	0.637642	0.761593	0.068014
	N5095	N	0.666313	0.768311	0.080781
	O5096	O	0.630425	0.775531	0.078322
	O5097	O	0.690037	0.748774	0.070966
	C5098	C	0.590394	0.661522	-0.028568
	C5099	C	0.640490	0.688608	0.008206
	N5100	N	0.617537	0.664201	-0.018266
	O5101	O	0.665866	0.695917	0.021937
	O5102	O	0.567598	0.642962	-0.050030
	F5103	F	0.471054	0.403332	-0.065722
	C5104	C	0.494141	0.430655	-0.025388
	C5105	C	0.493230	0.445646	-0.023300
	F5106	F	0.469662	0.432506	-0.061861
	C5107	C	0.516543	0.474317	0.018639
	C5108	C	0.541946	0.487419	0.058075
	F5109	F	0.564987	0.514769	0.098607
	C5110	C	0.543552	0.472327	0.055650
	F5111	F	0.568771	0.485209	0.093468
	C5112	C	0.519071	0.443830	0.014236
	F5113	F	0.357434	0.698035	-0.089641
	C5114	C	0.360466	0.719441	-0.058716
	C5115	C	0.357649	0.733794	-0.057646
	F5116	F	0.350018	0.725026	-0.089310
	C5117	C	0.362408	0.757097	-0.024008
	C5118	C	0.369894	0.765510	0.008219
	F5119	F	0.376147	0.788441	0.042227
	C5120	C	0.370119	0.749879	0.004708
	F5121	F	0.373493	0.756474	0.032368
	C5122	C	0.366109	0.726977	-0.028056
	F5123	F	0.489976	0.695242	-0.044934
	C5124	C	0.497861	0.698905	-0.018411
	C5125	C	0.480024	0.700258	-0.011303
	F5126	F	0.455651	0.698655	-0.030395
	C5127	C	0.486818	0.702774	0.014598
	C5128	C	0.513106	0.705347	0.035250
	F5129	F	0.520935	0.708795	0.061496
	C5130	C	0.531196	0.704277	0.028499
	F5131	F	0.556109	0.706385	0.047961
	C5132	C	0.523914	0.701211	0.001844
	F5133	F	0.670555	0.908671	0.129882
	C5134	C	0.647028	0.894004	0.089711
	C5135	C	0.626915	0.899902	0.083910
	F5136	F	0.631777	0.920166	0.118666
	C5137	C	0.601920	0.885072	0.042490
	C5138	C	0.600072	0.866179	0.009073
	F5139	F	0.579361	0.854314	-0.028390
	C5140	C	0.619481	0.859596	0.014229
	F5141	F	0.615465	0.840173	-0.019890
	C5142	C	0.642993	0.873053	0.054456
	F5143	F	0.714097	0.826302	0.169358
	C5144	C	0.704010	0.814292	0.133944
	C5145	C	0.714410	0.830279	0.139635
	F5146	F	0.734506	0.857546	0.180469
	C5147	C	0.703641	0.818007	0.102713
	C5148	C	0.683941	0.789533	0.060752
	F5149	F	0.674517	0.777463	0.025531
	C5150	C	0.673578	0.773602	0.055034
	F5151	F	0.654260	0.746329	0.014327
	C5152	C	0.682431	0.785698	0.090990
	F5153	F	0.378749	0.831793	-0.043810
	C5154	C	0.410524	0.853345	-0.004581
	C5155	C	0.429931	0.860793	-0.003968
	F5156	F	0.416449	0.846214	-0.042637
	C5157	C	0.463269	0.882881	0.035980
	C5158	C	0.476480	0.898111	0.076160
	F5159	F	0.508165	0.919790	0.115338
	C5160	C	0.456994	0.890803	0.075718
	F5161	F	0.469967	0.905950	0.114641
	C5162	C	0.423970	0.867560	0.034847
	C5163	C	0.539115	0.891032	0.029450
	C5164	C	0.547476	0.900089	0.024041
	C5165	C	0.533331	0.909367	0.018553
	C5166	C	0.512062	0.910427	0.020391
	C5167	C	0.503504	0.901077	0.025505
	C5168	C	0.516834	0.891344	0.029896
	C5169	C	0.573094	0.898850	0.027786
	C5170	C	0.557442	0.882073	0.033824
	N5171	N	0.578295	0.888046	0.034119
	O5172	O	0.555739	0.871596	0.036401
	O5173	O	0.587463	0.905538	0.026480
	C5174	C	0.502712	0.923061	0.017233
	C5175	C	0.537972	0.921091	0.013551
	N5176	N	0.519015	0.929101	0.013241
	O5177	O	0.554082	0.923806	0.010402
	O5178	O	0.485968	0.928603	0.019508
	C5179	C	0.502563	0.882383	0.033841
	C5180	C	0.481518	0.899869	0.028553
	N5181	N	0.482237	0.888825	0.034262
	O5182	O	0.465747	0.906568	0.026455
	O5183	O	0.505926	0.871128	0.035043
	C5184	C	0.020928	0.736964	0.123045
	C5185	C	0.008834	0.721526	0.117474
	C5186	C	-0.021063	0.711549	0.100584
	C5187	C	-0.037725	0.718515	0.092082
	C5188	C	-0.025276	0.734526	0.098435
	C5189	C	0.003393	0.743064	0.112583
	C5190	C	0.033095	0.719417	0.133333
	C5191	C	0.054582	0.746947	0.145908
	N5192	N	0.060847	0.736344	0.152463
	O5193	O	0.073948	0.761830	0.158671
	O5194	O	0.031089	0.706322	0.131204
	C5195	C	-0.066226	0.708235	0.080777
	C5196	C	-0.039792	0.694533	0.091027
	N5197	N	-0.066124	0.693971	0.080743
	O5198	O	-0.034723	0.683276	0.091857
	O5199	O	-0.085418	0.711487	0.074292
	C5200	C	0.010000	0.759042	0.115027
	C5201	C	-0.037139	0.745834	0.093498
	N5202	N	-0.014722	0.760675	0.104438
	O5203	O	-0.060530	0.743697	0.082904
	O5204	O	0.031127	0.768410	0.123015
	F5205	F	0.077688	0.712255	0.110066
	C5206	C	0.095623	0.726112	0.149298
	C5207	C	0.119148	0.724996	0.164468
	F5208	F	0.120827	0.707543	0.136708
	C5209	C	0.140588	0.741553	0.207703
	C5210	C	0.137029	0.758808	0.234669
	F5211	F	0.158063	0.776009	0.277108
	C5212	C	0.111492	0.757987	0.217512
	F5213	F	0.107480	0.773642	0.242824
	C5214	C	0.089789	0.740944	0.173843
	F5215	F	0.029033	0.846858	0.190835
	C5216	C	0.005956	0.819536	0.150531
	C5217	C	0.006980	0.804569	0.148483
	F5218	F	0.030470	0.817755	0.187111
	C5219	C	-0.016306	0.775896	0.106578
	C5220	C	-0.041648	0.762748	0.067072
	F5221	F	-0.064716	0.735402	0.026588
	C5222	C	-0.043285	0.777804	0.069421
	F5223	F	-0.068536	0.764890	0.031576
	C5224	C	-0.018915	0.806317	0.110843
	F5225	F	0.968318	0.723210	0.161524
	C5226	C	0.936303	0.702617	0.126000
	C5227	C	0.922218	0.695966	0.130666
	F5228	F	0.941457	0.708117	0.168400
	C5229	C	0.888620	0.677114	0.097029
	C5230	C	0.869649	0.662437	0.055714
	F5231	F	0.837481	0.643437	0.022010
	C5232	C	0.884045	0.667338	0.049312
	F5233	F	0.865668	0.652399	0.009030
	C5234	C	0.917602	0.687871	0.084740
	C5235	C	0.190590	0.725922	0.232914
	C5236	C	0.200736	0.732210	0.225115
	C5237	C	0.218618	0.725594	0.217853
	C5238	C	0.227734	0.714152	0.220991
	C5239	C	0.220570	0.710517	0.233765
	C5240	C	0.201277	0.715622	0.238410
	C5241	C	0.185827	0.742578	0.220342
	C5242	C	0.167228	0.730832	0.230983
	N5243	N	0.164891	0.740348	0.222388
	O5244	O	0.152048	0.727053	0.234287
	O5245	O	0.189883	0.751200	0.215475
	C5246	C	0.241367	0.704885	0.203835
	C5247	C	0.227368	0.725184	0.200504
	N5248	N	0.239413	0.711211	0.190495
	O5249	O	0.224530	0.733809	0.194304
	O5250	O	0.250454	0.692774	0.198573
	C5251	C	0.193013	0.705219	0.243886
	C5252	C	0.227160	0.698555	0.239267
	N5253	N	0.209077	0.694994	0.243787
	O5254	O	0.244675	0.693328	0.240960
	O5255	O	0.176043	0.704788	0.247296
	C5256	C	-0.047892	0.849555	0.100149
	C5257	C	-0.039041	0.859160	0.095707
	C5258	C	-0.016852	0.858768	0.095092
	C5259	C	-0.004049	0.848485	0.098477
	C5260	C	-0.011841	0.839874	0.104942
	C5261	C	-0.033652	0.840364	0.105779
	C5262	C	-0.057599	0.867880	0.090918
	C5263	C	-0.073278	0.851039	0.096861
	N5264	N	-0.078451	0.861887	0.090608
	O5265	O	-0.087536	0.844460	0.098372
	O5266	O	-0.056027	0.878238	0.088118
	C5267	C	0.018270	0.850057	0.096052
	C5268	C	-0.003036	0.867300	0.090342
	N5269	N	0.017364	0.860935	0.090044
	O5270	O	-0.006760	0.878217	0.088510
	O5271	O	0.034387	0.843708	0.098757
	C5272	C	-0.037876	0.829028	0.111494
	C5273	C	-0.002759	0.826951	0.107562
	N5274	N	-0.018916	0.821017	0.111781
	O5275	O	0.013733	0.821177	0.104831
	O5276	O	-0.053724	0.826551	0.115100
	C5277	C	0.839666	0.677672	0.156131
	C5278	C	0.838445	0.682532	0.141391
	C5279	C	0.854888	0.679326	0.131305
	C5280	C	0.871968	0.671367	0.136234
	C5281	C	0.874782	0.668284	0.153945
	C5282	C	0.858410	0.671261	0.163546
	C5283	C	0.815668	0.688303	0.136120
	C5284	C	0.818376	0.680109	0.160933
	N5285	N	0.804147	0.686086	0.147868
	O5286	O	0.812785	0.677160	0.172384
	O5287	O	0.807755	0.693619	0.124371
	C5288	C	0.884745	0.667117	0.119688
	C5289	C	0.858236	0.682212	0.114056
	N5290	N	0.875772	0.673865	0.106559
	O5291	O	0.849393	0.690654	0.108511
	O5292	O	0.899581	0.659275	0.117035
	C5293	C	0.861225	0.662640	0.174833
	C5294	C	0.890326	0.659085	0.161277
	N5295	N	0.880341	0.655187	0.172324
	O5296	O	0.907577	0.655031	0.158448
	O5297	O	0.849364	0.660892	0.182954
	F5298	F	0.183349	0.641243	0.168390
	C5299	C	0.187719	0.651116	0.199382
	C5300	C	0.177024	0.633749	0.191245
	F5301	F	0.163381	0.607599	0.153303
	C5302	C	0.179564	0.643087	0.221718
	C5303	C	0.195901	0.670957	0.262692
	F5304	F	0.199383	0.680631	0.293035
	C5305	C	0.208129	0.688657	0.271906
	F5306	F	0.225083	0.715452	0.312236
	C5307	C	0.202389	0.678631	0.239081
	F5308	F	0.187244	0.670136	0.097992
	C5309	C	0.216787	0.679245	0.117021
	C5310	C	0.220495	0.666906	0.089827
	F5311	F	0.194830	0.646906	0.045502
	C5312	C	0.250970	0.675411	0.108813
	C5313	C	0.277658	0.698672	0.156294
	F5314	F	0.307165	0.709170	0.175545
	C5315	C	0.274198	0.711141	0.183652
	F5316	F	0.300454	0.733037	0.228885
	C5317	C	0.243439	0.700803	0.163936
	F5318	F	0.867951	0.829735	0.006071
	C5319	C	0.872883	0.850035	0.040889
	C5320	C	0.852932	0.856084	0.035260
	F5321	F	0.829286	0.841344	-0.004968
	C5322	C	0.857055	0.877087	0.070594
	C5323	C	0.880612	0.890555	0.110828
	F5324	F	0.884731	0.910044	0.145040
	C5325	C	0.899960	0.883910	0.115892
	F5326	F	0.920742	0.895807	0.153386
	C5327	C	0.897977	0.864921	0.082348
	F5328	F	0.082994	0.904021	0.167281
	C5329	C	0.069638	0.889189	0.128475
	C5330	C	0.089060	0.896706	0.129168
	F5331	F	0.120782	0.918406	0.168507
	C5332	C	0.075728	0.882243	0.089592
	C5333	C	0.042785	0.858828	0.048616
	F5334	F	0.029933	0.843506	0.009624
	C5335	C	0.023253	0.851523	0.048131
	F5336	F	-0.008371	0.829684	0.008838
	C5337	C	0.036357	0.866921	0.088387
	F5338	F	0.908787	0.671991	0.240979
	C5339	C	0.893060	0.646191	0.199594
	C5340	C	0.890844	0.628105	0.191029
	F5341	F	0.902372	0.635866	0.223004
	C5342	C	0.876817	0.601802	0.149045
	C5343	C	0.861320	0.592695	0.113856
	F5344	F	0.846149	0.567023	0.072696
	C5345	C	0.862217	0.610324	0.121734
	F5346	F	0.847173	0.601198	0.087571
	C5347	C	0.879171	0.637580	0.165188
	F5348	F	0.817836	0.731616	0.222359
	C5349	C	0.787002	0.708282	0.181672
	C5350	C	0.762984	0.706103	0.178309
	F5351	F	0.771024	0.727166	0.216040
	C5352	C	0.730390	0.682169	0.135835
	C5353	C	0.722742	0.660258	0.097125
	F5354	F	0.691851	0.637184	0.056173
	C5355	C	0.746851	0.662099	0.100651
	F5356	F	0.738816	0.640560	0.063082
	C5357	C	0.779350	0.686072	0.143017
	C5358	C	0.116008	0.589484	0.167304
	C5359	C	0.138785	0.586379	0.177080
	C5360	C	0.131323	0.565732	0.163443
	C5361	C	0.100378	0.547680	0.137413
	C5362	C	0.077406	0.550191	0.126160
	C5363	C	0.085397	0.571808	0.142855
	C5364	C	0.168497	0.608182	0.202723
	C5365	C	0.130425	0.613369	0.186995
	N5366	N	0.161823	0.623760	0.207596
	O5367	O	0.118523	0.622502	0.185751
	O5368	O	0.193336	0.612402	0.216731
	C5369	C	0.097950	0.528940	0.129585
	C5370	C	0.149247	0.556856	0.169450
	N5371	N	0.128135	0.535830	0.150925
	O5372	O	0.175168	0.564174	0.184883
	O5373	O	0.075488	0.511350	0.110076
	C5374	C	0.057311	0.571215	0.131488
	C5375	C	0.043090	0.532876	0.098211
	N5376	N	0.033406	0.548036	0.106968
	O5377	O	0.026205	0.510306	0.072564
	O5378	O	0.054485	0.586924	0.141521
	C5379	C	0.311034	0.645007	0.046991
	C5380	C	0.302622	0.643270	0.060764
	C5381	C	0.283156	0.649499	0.064475
	C5382	C	0.271618	0.656535	0.052980
	C5383	C	0.279518	0.657757	0.038257
	C5384	C	0.299307	0.652231	0.035522
	C5385	C	0.319200	0.635869	0.071720
	C5386	C	0.334453	0.640048	0.050788
	N5387	N	0.337973	0.633994	0.064893
	O5388	O	0.348694	0.641146	0.044474
	O5389	O	0.317733	0.632104	0.084143
	C5390	C	0.255326	0.665592	0.065541
	C5391	C	0.273021	0.652596	0.082922
	N5392	N	0.256343	0.662455	0.082807
	O5393	O	0.278973	0.649293	0.097868
	O5394	O	0.244897	0.675397	0.064535
	C5395	C	0.306352	0.658468	0.024136
	C5396	C	0.271248	0.665676	0.025586
	N5397	N	0.288860	0.666541	0.018771
	O5398	O	0.253704	0.670765	0.021780
	O5399	O	0.323678	0.657921	0.020909
	C5400	C	0.771969	0.907063	0.053702
	C5401	C	0.782828	0.899385	0.064151
	C5402	C	0.802250	0.893106	0.060365
	C5403	C	0.811265	0.895471	0.047621
	C5404	C	0.799113	0.902241	0.035402
	C5405	C	0.779005	0.907450	0.037597
	C5406	C	0.773131	0.902902	0.083276
	C5407	C	0.755395	0.915861	0.065833
	N5408	N	0.756472	0.912781	0.083190
	O5409	O	0.744756	0.925487	0.064524
	O5410	O	0.779337	0.899842	0.098609
	C5411	C	0.834486	0.890304	0.051073
	C5412	C	0.819123	0.886005	0.071812
	N5413	N	0.837955	0.884194	0.065083
	O5414	O	0.817780	0.882357	0.084430
	O5415	O	0.848661	0.891328	0.044638
	C5416	C	0.771161	0.915791	0.025631
	C5417	C	0.806213	0.908522	0.024097
	N5418	N	0.788810	0.916681	0.018873
	O5419	O	0.823506	0.907933	0.020808
	O5420	O	0.753824	0.921096	0.022178
	C5421	C	0.132289	0.945089	0.127279
	C5422	C	0.158800	0.954566	0.138253
	C5423	C	0.173308	0.943127	0.133992
	C5424	C	0.162338	0.922911	0.120407
	C5425	C	0.136580	0.914352	0.111834
	C5426	C	0.121307	0.924984	0.114160
	C5427	C	0.166037	0.976275	0.152107
	C5428	C	0.120836	0.960000	0.132518
	N5429	N	0.142057	0.978286	0.147155
	O5430	O	0.098507	0.957825	0.125954
	O5431	O	0.187382	0.990145	0.165306
	C5432	C	0.183476	0.915445	0.119561
	C5433	C	0.200406	0.948676	0.140758
	N5434	N	0.206206	0.932122	0.132903
	O5435	O	0.214765	0.963600	0.150016
	O5436	O	0.182342	0.898750	0.109236
	C5437	C	0.094592	0.912351	0.102883
	C5438	C	0.119790	0.894402	0.099099
	N5439	N	0.094404	0.893925	0.093556
	O5440	O	0.125902	0.881617	0.095439
	O5441	O	0.076446	0.916619	0.102230
	C5442	C	0.922445	0.556816	0.132014
	C5443	C	0.911112	0.532441	0.108325
	C5444	C	0.881187	0.515987	0.086345
	C5445	C	0.862719	0.523816	0.087695
	C5446	C	0.874312	0.548504	0.111849
	C5447	C	0.904190	0.564901	0.134070
	C5448	C	0.932914	0.527056	0.105555
	C5449	C	0.953398	0.569241	0.149085
	N5450	N	0.957184	0.549562	0.129387
	O5451	O	0.972228	0.591306	0.174412
	O5452	O	0.930649	0.507542	0.085898
	C5453	C	0.832023	0.502116	0.060804
	C5454	C	0.862485	0.488612	0.057266
	N5455	N	0.833689	0.481752	0.044181
	O5456	O	0.869618	0.474594	0.046672
	O5457	O	0.809986	0.501312	0.054149
	C5458	C	0.909752	0.588813	0.154249
	C5459	C	0.859625	0.561644	0.117333
	N5460	N	0.882493	0.586004	0.143649
	O5461	O	0.834101	0.554167	0.103198
	O5462	O	0.932433	0.607282	0.175444
	C5463	C	0.672885	0.692644	0.132946
	C5464	C	0.662423	0.672918	0.120460
	C5465	C	0.636568	0.664279	0.111690
	C5466	C	0.621536	0.675144	0.114521
	C5467	C	0.632850	0.695554	0.128329
	C5468	C	0.658618	0.704303	0.137686
	C5469	C	0.683120	0.665040	0.118716
	C5470	C	0.699974	0.698171	0.139692
	N5471	N	0.705733	0.681585	0.131782
	O5472	O	0.714331	0.713077	0.148922
	O5473	O	0.681799	0.648192	0.108046
	C5474	C	0.595023	0.662711	0.103679
	C5475	C	0.619790	0.644341	0.098983
	N5476	N	0.594652	0.644111	0.093971
	O5477	O	0.625726	0.631373	0.094928
	O5478	O	0.577142	0.667229	0.103574
	C5479	C	0.666160	0.726282	0.152157
	C5480	C	0.621380	0.710445	0.133514
	N5481	N	0.642477	0.728599	0.147862
	O5482	O	0.599141	0.708365	0.127154
	O5483	O	0.687488	0.740105	0.165277
	F5484	F	-0.056080	0.543889	0.077426
	C5485	C	-0.031148	0.546019	0.096909
	C5486	C	-0.013177	0.544798	0.089941
	F5487	F	-0.021069	0.541281	0.063598
	C5488	C	0.013082	0.547325	0.110524
	C5489	C	0.019906	0.549870	0.136468
	F5490	F	0.044265	0.551455	0.155537
	C5491	C	0.002091	0.551240	0.143609
	F5492	F	0.010080	0.555030	0.170306
	C5493	C	-0.023882	0.549047	0.123515
	F5494	F	0.127065	0.993951	0.092947
	C5495	C	0.130096	1.000226	0.120144
	C5496	C	0.130002	0.984342	0.116130
	F5497	F	0.123783	0.961470	0.082069
	C5498	C	0.137200	0.992478	0.147980
	C5499	C	0.141952	1.015739	0.181699
	F5500	F	0.149415	1.024293	0.213100
	C5501	C	0.139267	1.030252	0.183089
	F5502	F	0.142430	1.051689	0.214209
	C5503	C	0.133886	1.022978	0.152787
	F5504	F	0.384627	0.659861	0.144889
	C5505	C	0.380569	0.640382	0.110741
	C5506	C	0.400026	0.633849	0.115983
	F5507	F	0.420715	0.645723	0.153455
	C5508	C	0.398228	0.614978	0.082620
	C5509	C	0.373277	0.600149	0.041195
	F5510	F	0.368463	0.579900	0.006487
	C5511	C	0.353190	0.606061	0.035367
	F5512	F	0.329609	0.591312	-0.004876
	C5513	C	0.357144	0.626966	0.070547
	F5514	F	0.265342	0.642065	-0.056142
	C5515	C	0.285339	0.669329	-0.015370
	C5516	C	0.295801	0.685292	-0.009697
	F5517	F	0.285616	0.673251	-0.045176
	C5518	C	0.317305	0.713885	0.033201
	C5519	C	0.326171	0.726006	0.069184
	F5520	F	0.345454	0.753279	0.109858
	C5521	C	0.315855	0.710106	0.063534
	F5522	F	0.325306	0.722207	0.098791
	C5523	C	0.296179	0.681634	0.021607
	F5524	F	0.845764	1.003599	0.110528
	C5525	C	0.826324	0.976321	0.069714
	C5526	C	0.815994	0.960341	0.063926
	F5527	F	0.825464	0.972362	0.099130
	C5528	C	0.796246	0.931868	0.021899
	C5529	C	0.785487	0.919655	-0.014971
	F5530	F	0.765329	0.892390	-0.055874
	C5531	C	0.795991	0.935702	-0.009143
	F5532	F	0.785846	0.923748	-0.044537
	C5533	C	0.817529	0.964291	0.033835
	F5534	F	0.694889	0.897099	0.045747
	C5535	C	0.720552	0.917132	0.090093
	C5536	C	0.716816	0.929430	0.117248
	F5537	F	0.687251	0.920252	0.098162
	C5538	C	0.743460	0.951012	0.164178
	C5539	C	0.774239	0.961460	0.183964
	F5540	F	0.800473	0.983299	0.229177
	C5541	C	0.777727	0.949041	0.156644
	F5542	F	0.807235	0.959534	0.175906
	C5543	C	0.751055	0.925712	0.109142
	F5544	F	0.271544	0.977639	0.217216
	C5545	C	0.263482	0.956611	0.179457
	C5546	C	0.287495	0.958773	0.182803
	F5547	F	0.318356	0.982052	0.223521
	C5548	C	0.279804	0.936598	0.144093
	C5549	C	0.247278	0.912696	0.101697
	F5550	F	0.239218	0.891142	0.064108
	C5551	C	0.223188	0.910870	0.098208
	F5552	F	0.192294	0.887796	0.057280
	C5553	C	0.230872	0.932723	0.136970
	F5554	F	0.649953	0.774683	0.213947
	C5555	C	0.642477	0.766121	0.182533
	C5556	C	0.639647	0.780561	0.183794
	F5557	F	0.642816	0.802001	0.214920
	C5558	C	0.634147	0.773231	0.153387
	C5559	C	0.630208	0.750404	0.120611
	F5560	F	0.627156	0.744106	0.093382
	C5561	C	0.630232	0.734580	0.116711
	F5562	F	0.623924	0.711667	0.082575
	C5563	C	0.637591	0.742793	0.148699
	F5564	F	0.530101	0.593850	0.010194
	C5565	C	0.543079	0.609080	0.049175
	C5566	C	0.523603	0.601850	0.048813
	F5567	F	0.491944	0.580093	0.009610
	C5568	C	0.536804	0.617218	0.089087
	C5569	C	0.570097	0.639452	0.129109
	F5570	F	0.583551	0.654202	0.167894
	C5571	C	0.589468	0.646884	0.129673
	F5572	F	0.621225	0.668494	0.168909
	C5573	C	0.576040	0.632453	0.090085
	C5574	C	0.466802	0.590654	0.106483
	C5575	C	0.488038	0.589575	0.104586
	C5576	C	0.496289	0.598643	0.098947
	C5577	C	0.483586	0.609029	0.095752
	C5578	C	0.461033	0.609041	0.095680
	C5579	C	0.452643	0.599929	0.101004
	C5580	C	0.497303	0.576841	0.107553
	C5581	C	0.462212	0.578955	0.111539
	N5582	N	0.481090	0.570865	0.111684
	O5583	O	0.446196	0.576316	0.114845
	O5584	O	0.513936	0.571199	0.105071
	C5585	C	0.497491	0.617657	0.091175
	C5586	C	0.518595	0.600203	0.096499
	N5587	N	0.517858	0.611262	0.090814
	O5588	O	0.534575	0.593711	0.098946
	O5589	O	0.493865	0.628676	0.089531
	C5590	C	0.426984	0.601118	0.097186
	C5591	C	0.442822	0.618125	0.091549
	N5592	N	0.421874	0.612033	0.091051
	O5593	O	0.444670	0.628771	0.089281
	O5594	O	0.412516	0.594311	0.098285
	C5595	C	0.380705	0.765330	0.085045
	C5596	C	0.362578	0.773459	0.087288
	C5597	C	0.373933	0.797930	0.110826
	C5598	C	0.403653	0.814179	0.132638
	C5599	C	0.422450	0.806583	0.131937
	C5600	C	0.410896	0.782016	0.107700
	C5601	C	0.331735	0.751629	0.060009
	C5602	C	0.362177	0.738107	0.056416
	N5603	N	0.333400	0.731267	0.043387
	O5604	O	0.369399	0.724166	0.046050
	O5605	O	0.309630	0.750768	0.053174
	C5606	C	0.409381	0.838259	0.153280
	C5607	C	0.359222	0.811048	0.116274
	N5608	N	0.382100	0.835426	0.142637
	O5609	O	0.333680	0.803547	0.102088
	O5610	O	0.432165	0.856845	0.174775
	C5611	C	0.432735	0.776674	0.104977
	C5612	C	0.453246	0.818911	0.148663
	N5613	N	0.457036	0.799236	0.128932
	O5614	O	0.471991	0.840935	0.173839
	O5615	O	0.430473	0.757154	0.085274
	C5616	C	0.690441	0.975886	0.232863
	C5617	C	0.700583	0.982202	0.225095
	C5618	C	0.718526	0.975656	0.217925
	C5619	C	0.727719	0.964265	0.221142
	C5620	C	0.720547	0.960595	0.233874
	C5621	C	0.701185	0.965622	0.238411
	C5622	C	0.685602	0.992516	0.220241
	C5623	C	0.667022	0.980731	0.230851
	N5624	N	0.664646	0.990236	0.222234
	O5625	O	0.651822	0.976907	0.234098
	O5626	O	0.689619	1.001130	0.215350
	C5627	C	0.741446	0.955094	0.204119
	C5628	C	0.727281	0.975282	0.200613
	N5629	N	0.739418	0.961384	0.190708
	O5630	O	0.724382	0.983881	0.194364
	O5631	O	0.750666	0.943083	0.199017
	C5632	C	0.692925	0.955190	0.243847
	C5633	C	0.727198	0.948670	0.239440
	N5634	N	0.709059	0.945028	0.243841
	O5635	O	0.744793	0.943526	0.241258
	O5636	O	0.675899	0.954690	0.247153
	C5637	C	0.372191	0.921661	0.136775
	C5638	C	0.354591	0.929127	0.131081
	C5639	C	0.338252	0.932400	0.141325
	C5640	C	0.339984	0.928033	0.156883
	C5641	C	0.357814	0.920660	0.162681
	C5642	C	0.374479	0.918009	0.153580
	C5643	C	0.358282	0.932406	0.114452
	C5644	C	0.384693	0.917191	0.119822
	N5645	N	0.375757	0.924019	0.106833
	O5646	O	0.399332	0.909167	0.116826
	O5647	O	0.349669	0.941088	0.109332
	C5648	C	0.318519	0.930262	0.161383
	C5649	C	0.316026	0.938753	0.137040
	N5650	N	0.304536	0.936535	0.148812
	O5651	O	0.308441	0.944444	0.125908
	O5652	O	0.312665	0.926993	0.172329
	C5653	C	0.389995	0.908754	0.160790
	C5654	C	0.360971	0.912324	0.174458
	N5655	N	0.380039	0.904830	0.171829
	O5656	O	0.349331	0.910749	0.182916
	O5657	O	0.407222	0.904693	0.157903
	C5658	C	0.577297	0.799898	0.125521
	C5659	C	0.585396	0.821688	0.142640
	C5660	C	0.616204	0.839652	0.167761
	C5661	C	0.638747	0.836215	0.176740
	C5662	C	0.631499	0.815893	0.163840
	C5663	C	0.600678	0.798045	0.138280
	C5664	C	0.557303	0.821081	0.131270
	C5665	C	0.543123	0.782764	0.098067
	N5666	N	0.533446	0.797932	0.106842
	O5667	O	0.526313	0.760280	0.072684
	O5668	O	0.554441	0.836762	0.141242
	C5669	C	0.668575	0.858207	0.202800
	C5670	C	0.630432	0.863307	0.186905
	N5671	N	0.661844	0.873730	0.207554
	O5672	O	0.618408	0.872282	0.185311
	O5673	O	0.693515	0.862571	0.217120
	C5674	C	0.598181	0.779160	0.130127
	C5675	C	0.649465	0.807076	0.169974
	N5676	N	0.628383	0.786082	0.151522
	O5677	O	0.675395	0.814409	0.185433
	O5678	O	0.575676	0.761474	0.110423
	F5679	F	0.434961	0.485085	0.025992
	C5680	C	0.458031	0.512433	0.066573
	C5681	C	0.456536	0.527573	0.069083
	F5682	F	0.431322	0.514752	0.031336
	C5683	C	0.480982	0.556082	0.110582
	C5684	C	0.505828	0.569206	0.150167
	F5685	F	0.528879	0.596535	0.190571
	C5686	C	0.506701	0.554156	0.147961
	F5687	F	0.530102	0.567254	0.186506
	C5688	C	0.483365	0.525484	0.105968
	F5689	F	0.345811	0.816604	0.071884
	C5690	C	0.360902	0.842229	0.113042
	C5691	C	0.361880	0.859930	0.121075
	F5692	F	0.346860	0.850872	0.086987
	C5693	C	0.378848	0.887170	0.164576
	C5694	C	0.392791	0.895723	0.198931
	F5695	F	0.408416	0.921472	0.240301
	C5696	C	0.390506	0.877567	0.190214
	F5697	F	0.402019	0.885250	0.222103
	C5698	C	0.376461	0.851284	0.148181
	F5699	F	0.478987	0.791189	0.063486
	C5700	C	0.486859	0.794687	0.089801
	C5701	C	0.468843	0.795858	0.096692
	F5702	F	0.443916	0.793727	0.077200
	C5703	C	0.476047	0.798815	0.123199
	C5704	C	0.502101	0.801122	0.143453
	F5705	F	0.509960	0.804749	0.169927
	C5706	C	0.519991	0.799843	0.136446
	F5707	F	0.544318	0.801388	0.155465
	C5708	C	0.513133	0.797237	0.110420
	F5709	F	0.657731	1.025876	0.276828
	C5710	C	0.636734	1.008662	0.234382
	C5711	C	0.611109	1.007732	0.217083
	F5712	F	0.607088	1.023411	0.242369
	C5713	C	0.589352	0.990581	0.173321
	C5714	C	0.595137	0.975662	0.148737
	F5715	F	0.577208	0.961757	0.109464
	C5716	C	0.618786	0.974690	0.164096
	F5717	F	0.620514	0.957245	0.136405
	C5718	C	0.640273	0.991354	0.207425
	F5719	F	0.699034	0.930535	0.292780
	C5720	C	0.695816	0.920935	0.262645
	C5721	C	0.707980	0.938642	0.271848
	F5722	F	0.724747	0.965406	0.312073
	C5723	C	0.702407	0.928667	0.239149
	C5724	C	0.687877	0.901186	0.199544
	F5725	F	0.683807	0.891395	0.168783
	C5726	C	0.677248	0.883820	0.191432
	F5727	F	0.663826	0.857727	0.153649
	C5728	C	0.679599	0.893090	0.221740
	F5729	F	0.337282	0.893515	0.022203
	C5730	C	0.369440	0.912510	0.055825
	C5731	C	0.383741	0.917245	0.049187
	F5732	F	0.365272	0.902242	0.008836
	C5733	C	0.417297	0.937697	0.084469
	C5734	C	0.436104	0.952467	0.125768
	F5735	F	0.468109	0.973056	0.161211
	C5736	C	0.422100	0.945989	0.130677
	F5737	F	0.441408	0.958217	0.168493
	C5738	C	0.388510	0.927200	0.097167
	C5739	C	0.508326	0.971038	0.116715
	C5740	C	0.520392	0.986406	0.122165
	C5741	C	0.502644	0.992167	0.111050
	C5742	C	0.474197	0.983950	0.097488
	C5743	C	0.461773	0.968022	0.091275
	C5744	C	0.478421	0.961061	0.099805
	C5745	C	0.554047	0.996398	0.145054
	C5746	C	0.532656	0.969053	0.132820
	N5747	N	0.560387	0.985940	0.151874
	O5748	O	0.530711	0.956073	0.130912
	O5749	O	0.573364	1.011190	0.157647
	C5750	C	0.462385	0.995296	0.092614
	C5751	C	0.509510	1.008456	0.114092
	N5752	N	0.484851	1.010167	0.103636
	O5753	O	0.530750	1.017949	0.122332
	O5754	O	0.438997	0.993167	0.082012
	C5755	C	0.459717	0.944119	0.090369
	C5756	C	0.433382	0.957910	0.080255
	N5757	N	0.433470	0.943665	0.080258
	O5758	O	0.414283	0.961268	0.073948
	O5759	O	0.464730	0.932822	0.091128
	C5760	C	0.047624	0.650297	0.274488
	C5761	C	0.039364	0.641329	0.280064
	C5762	C	0.017168	0.641719	0.280665
	C5763	C	0.003779	0.651403	0.276195
	C5764	C	0.012255	0.660690	0.270958
	C5765	C	0.033746	0.659863	0.269528
	C5766	C	0.057612	0.632283	0.284268
	C5767	C	0.073173	0.648990	0.278091
	N5768	N	0.078373	0.638168	0.284390
	O5769	O	0.087491	0.655638	0.276701
	O5770	O	0.055919	0.621806	0.286848
	C5771	C	-0.018243	0.650144	0.279170
	C5772	C	0.002988	0.632829	0.284754
	N5773	N	-0.017400	0.639205	0.285072
	O5774	O	0.006465	0.621671	0.286138
	O5775	O	-0.034135	0.656722	0.276865
	C5776	C	0.037866	0.671074	0.263594
	C5777	C	0.002768	0.673197	0.267567
	N5778	N	0.018861	0.679038	0.263203
	O5779	O	-0.013918	0.678794	0.269943
	O5780	O	0.053687	0.673508	0.259927
	F5781	F	0.079282	0.604369	0.221718
	C5782	C	0.100084	0.616269	0.259214
	C5783	C	0.119387	0.609581	0.264217
	F5784	F	0.115306	0.590136	0.230033
	C5785	C	0.142889	0.622981	0.304383
	C5786	C	0.146955	0.643923	0.339681
	F5787	F	0.170556	0.658605	0.379856
	C5788	C	0.126959	0.649936	0.334037
	F5789	F	0.131912	0.670246	0.368876
	C5790	C	0.101954	0.635143	0.292659
	F5791	F	0.064715	0.764651	0.348446
	C5792	C	0.041659	0.737302	0.307932
	C5793	C	0.043290	0.722226	0.305534
	F5794	F	0.068441	0.735134	0.343406
	C5795	C	0.018876	0.693719	0.264106
	C5796	C	-0.005951	0.680513	0.224422
	F5797	F	-0.029046	0.653192	0.184107
	C5798	C	-0.006888	0.695495	0.226491
	F5799	F	-0.030390	0.682335	0.187897
	C5800	C	0.016353	0.724171	0.268437
	F5801	F	1.008692	0.670367	0.366348
	C5802	C	0.977001	0.648688	0.327233
	C5803	C	0.957623	0.641399	0.326914
	F5804	F	0.970671	0.656643	0.365932
	C5805	C	0.924624	0.618100	0.286085
	C5806	C	0.911105	0.603731	0.246512
	F5807	F	0.879326	0.582171	0.207342
	C5808	C	0.930396	0.611177	0.247012
	F5809	F	0.916821	0.596526	0.208257
	C5810	C	0.963719	0.633321	0.286928
	C5811	C	0.188440	0.604332	0.326902
	C5812	C	0.197545	0.606805	0.314326
	C5813	C	0.216949	0.600515	0.310499
	C5814	C	0.227737	0.592746	0.320789
	C5815	C	0.220577	0.592208	0.336666
	C5816	C	0.200161	0.597096	0.338345
	C5817	C	0.180840	0.614092	0.303190
	C5818	C	0.165271	0.609556	0.323552
	N5819	N	0.161967	0.615849	0.309843
	O5820	O	0.151016	0.608440	0.329839
	O5821	O	0.182317	0.617892	0.290817
	C5822	C	0.244462	0.584104	0.308879
	C5823	C	0.226764	0.597141	0.291578
	N5824	N	0.243464	0.587293	0.291689
	O5825	O	0.220589	0.600262	0.276338
	O5826	O	0.255148	0.574504	0.310214
	C5827	C	0.193437	0.591170	0.350267
	C5828	C	0.228416	0.583838	0.348580
	N5829	N	0.210842	0.583002	0.355455
	O5830	O	0.245700	0.578474	0.351913
	O5831	O	0.176384	0.591991	0.353979
	C5832	C	-0.020764	0.763104	0.251971
	C5833	C	-0.008275	0.779118	0.258635
	C5834	C	0.021652	0.789112	0.275592
	C5835	C	0.037837	0.781534	0.282946
	C5836	C	0.025844	0.766168	0.277812
	C5837	C	-0.002835	0.757639	0.263652
	C5838	C	-0.032745	0.780858	0.242051
	C5839	C	-0.054331	0.753270	0.229338
	N5840	N	-0.060583	0.763819	0.222681
	O5841	O	-0.073674	0.738488	0.216738
	O5842	O	-0.030806	0.793807	0.243899
	C5843	C	0.066465	0.791949	0.294545
	C5844	C	0.040179	0.805808	0.284559
	N5845	N	0.066399	0.806226	0.294605
	O5846	O	0.035083	0.816999	0.283591
	O5847	O	0.085703	0.788754	0.301162
	C5848	C	-0.009800	0.741212	0.260347
	C5849	C	0.037327	0.754386	0.281838
	N5850	N	0.014822	0.739454	0.270702
	O5851	O	0.060536	0.756285	0.291985
	O5852	O	-0.031065	0.731674	0.252034
	C5853	C	0.827053	0.557252	0.241722
	C5854	C	0.838086	0.577500	0.255391
	C5855	C	0.864096	0.586277	0.264481
	C5856	C	0.878812	0.575112	0.260990
	C5857	C	0.868033	0.555227	0.248362
	C5858	C	0.841546	0.545801	0.237462
	C5859	C	0.817056	0.585070	0.256427
	C5860	C	0.799912	0.551686	0.234877
	N5861	N	0.794220	0.568329	0.242904
	O5862	O	0.785441	0.536686	0.225433
	O5863	O	0.818329	0.601873	0.266990
	C5864	C	0.905804	0.588005	0.272848
	C5865	C	0.880650	0.605991	0.276708
	N5866	N	0.906019	0.606455	0.282221
	O5867	O	0.874413	0.618651	0.280106
	O5868	O	0.924094	0.583874	0.273811
	C5869	C	0.834273	0.524092	0.223606
	C5870	C	0.879339	0.540185	0.242860
	N5871	N	0.858155	0.521974	0.228365
	O5872	O	0.901541	0.542218	0.249146
	O5873	O	0.812958	0.510289	0.210525
	F5874	F	0.174205	0.527314	0.275294
	C5875	C	0.183784	0.539404	0.310599
	C5876	C	0.173369	0.523474	0.304863
	F5877	F	0.153984	0.496195	0.264125
	C5878	C	0.182270	0.535578	0.340848
	C5879	C	0.203837	0.564172	0.383791
	F5880	F	0.214051	0.576191	0.419265
	C5881	C	0.214298	0.580157	0.389502
	F5882	F	0.234468	0.607428	0.430367
	C5883	C	0.203482	0.567877	0.352555
	F5884	F	0.192714	0.540599	0.199011
	C5885	C	0.222218	0.551114	0.218265
	C5886	C	0.225691	0.538638	0.190915
	F5887	F	0.199455	0.516791	0.145701
	C5888	C	0.256464	0.549056	0.210684
	C5889	C	0.283108	0.570629	0.257612
	F5890	F	0.312671	0.579798	0.276692
	C5891	C	0.279371	0.582900	0.284757
	F5892	F	0.305047	0.602970	0.329122
	C5893	C	0.248889	0.574389	0.265748
	F5894	F	0.892693	0.726387	0.132207
	C5895	C	0.888667	0.742041	0.157498
	C5896	C	0.863148	0.741235	0.140335
	F5897	F	0.842070	0.723967	0.097841
	C5898	C	0.859623	0.758540	0.167319
	C5899	C	0.881143	0.775206	0.210652
	F5900	F	0.879470	0.792685	0.238404
	C5901	C	0.904763	0.774195	0.225949
	F5902	F	0.922735	0.788108	0.265238
	C5903	C	0.910483	0.759225	0.201291
	F5904	F	0.134633	0.847726	0.366314
	C5905	C	0.116290	0.832774	0.326026
	C5906	C	0.130719	0.837717	0.319692
	F5907	F	0.162896	0.856681	0.353390
	C5908	C	0.111779	0.823093	0.278429
	C5909	C	0.078174	0.804290	0.244807
	F5910	F	0.058990	0.792165	0.207103
	C5911	C	0.064026	0.797691	0.249481
	F5912	F	0.032005	0.777104	0.213936
	C5913	C	0.082708	0.812336	0.290648
	F5914	F	0.876397	0.538677	0.293333
	C5915	C	0.870026	0.515749	0.259119
	C5916	C	0.869990	0.499865	0.255100
	F5917	F	0.872950	0.506073	0.282204
	C5918	C	0.866068	0.477056	0.222312
	C5919	C	0.860672	0.469813	0.192032
	F5920	F	0.857385	0.448323	0.160773
	C5921	C	0.858083	0.484405	0.193570
	F5922	F	0.850623	0.475889	0.162204
	C5923	C	0.862919	0.507698	0.227386
	F5924	F	0.807953	0.612666	0.318375
	C5925	C	0.777080	0.589572	0.277376
	C5926	C	0.752922	0.587665	0.273752
	F5927	F	0.760878	0.609202	0.311245
	C5928	C	0.720427	0.563707	0.231311
	C5929	C	0.712838	0.541545	0.192701
	F5930	F	0.682006	0.518227	0.151937
	C5931	C	0.736927	0.543746	0.196199
	F5932	F	0.728941	0.522765	0.158498
	C5933	C	0.769504	0.567698	0.238725
	C5934	C	0.118793	0.484086	0.288836
	C5935	C	0.137245	0.476242	0.287450
	C5936	C	0.125860	0.451754	0.263866
	C5937	C	0.095848	0.435229	0.241285
	C5938	C	0.077605	0.443328	0.243365
	C5939	C	0.088922	0.467685	0.266999
	C5940	C	0.167883	0.497882	0.314181
	C5941	C	0.137399	0.511371	0.317648
	N5942	N	0.166159	0.518189	0.330641
	O5943	O	0.130224	0.525350	0.328115
	O5944	O	0.189927	0.498691	0.320856
	C5945	C	0.090238	0.411265	0.220965
	C5946	C	0.140278	0.438353	0.257654
	N5947	N	0.117397	0.413975	0.231290
	O5948	O	0.165643	0.445672	0.271356
	O5949	O	0.067599	0.392832	0.199872
	C5950	C	0.067132	0.473085	0.269783
	C5951	C	0.046632	0.430900	0.226256
	N5952	N	0.042840	0.450575	0.245927
	O5953	O	0.027799	0.408838	0.200937
	O5954	O	0.069424	0.492613	0.289473
	C5955	C	0.309527	0.524057	0.141873
	C5956	C	0.300016	0.518393	0.150773
	C5957	C	0.282057	0.524925	0.157904
	C5958	C	0.272133	0.535663	0.153542
	C5959	C	0.280164	0.540076	0.142139
	C5960	C	0.299525	0.535047	0.137608
	C5961	C	0.314527	0.507634	0.154853
	C5962	C	0.333098	0.519357	0.144171
	N5963	N	0.335397	0.509793	0.152686
	O5964	O	0.348413	0.523283	0.141124
	O5965	O	0.310278	0.498829	0.159384
	C5966	C	0.258584	0.545010	0.170836
	C5967	C	0.272777	0.524875	0.174450
	N5968	N	0.260510	0.538669	0.184151
	O5969	O	0.275440	0.516098	0.180378
	O5970	O	0.249527	0.557142	0.176131
	C5971	C	0.307228	0.544948	0.131201
	C5972	C	0.272953	0.551459	0.135610
	N5973	N	0.290945	0.554974	0.130960
	O5974	O	0.255113	0.556349	0.133365
	O5975	O	0.324017	0.545225	0.127479
	C5976	C	0.772239	0.785706	0.153691
	C5977	C	0.781464	0.774357	0.156991
	C5978	C	0.799369	0.767766	0.149764
	C5979	C	0.809446	0.774003	0.141864
	C5980	C	0.798677	0.784233	0.136248
	C5981	C	0.779348	0.789297	0.140836
	C5982	C	0.772787	0.774832	0.174451
	C5983	C	0.758561	0.794940	0.170784
	N5984	N	0.760664	0.788743	0.184345
	O5985	O	0.749340	0.806943	0.175851
	O5986	O	0.775730	0.766296	0.180808
	C5987	C	0.832840	0.769129	0.143836
	C5988	C	0.814369	0.757478	0.154669
	N5989	N	0.835267	0.759687	0.152561
	O5990	O	0.810404	0.748928	0.159672
	O5991	O	0.847976	0.772879	0.140464
	C5992	C	0.772663	0.801178	0.135189
	C5993	C	0.806883	0.794598	0.130695
	N5994	N	0.790756	0.804766	0.130702
	O5995	O	0.823875	0.795059	0.127328
	O5996	O	0.755066	0.806321	0.133360
	C5997	C	0.125808	0.832207	0.221939
	C5998	C	0.142428	0.829503	0.212761
	C5999	C	0.160694	0.822584	0.219321
	C6000	C	0.161899	0.817681	0.233999
	C6001	C	0.145964	0.821375	0.244910
	C6002	C	0.128653	0.829119	0.239652
	C6003	C	0.139084	0.837639	0.200648
	C6004	C	0.110088	0.841251	0.214365
	N6005	N	0.119895	0.845018	0.203061
	O6006	O	0.092828	0.845283	0.217191
	O6007	O	0.150673	0.839150	0.192090
	C6008	C	0.184374	0.811585	0.238712
	C6009	C	0.181717	0.819886	0.214060
	N6010	N	0.195747	0.813670	0.226725
	O6011	O	0.187273	0.822829	0.202582
	O6012	O	0.192170	0.806124	0.250222
	C6013	C	0.115786	0.833255	0.256042
	C6014	C	0.142184	0.818039	0.261430
	N6015	N	0.124665	0.826390	0.268974
	O6016	O	0.150765	0.809335	0.266515
	O6017	O	0.100965	0.841111	0.258737
	C6018	C	0.922732	0.450122	0.249515
	C6019	C	0.914888	0.428692	0.233280
	C6020	C	0.884058	0.410704	0.208094
	C6021	C	0.861251	0.413766	0.198230
	C6022	C	0.868878	0.434683	0.212486
	C6023	C	0.899731	0.452593	0.238178
	C6024	C	0.942718	0.428981	0.243892
	C6025	C	0.956988	0.467348	0.277238
	N6026	N	0.966598	0.452123	0.268325
	O6027	O	0.973875	0.489893	0.302820
	O6028	O	0.945392	0.413115	0.233462
	C6029	C	0.831431	0.391795	0.172208
	C6030	C	0.869555	0.386677	0.188074
	N6031	N	0.838067	0.376152	0.167179
	O6032	O	0.881457	0.377536	0.189290
	O6033	O	0.806548	0.387513	0.158067
	C6034	C	0.902063	0.471201	0.245728
	C6035	C	0.850715	0.443196	0.205685
	N6036	N	0.871810	0.464187	0.224142
	O6037	O	0.824642	0.435668	0.189792
	O6038	O	0.924520	0.488804	0.265251
	C6039	C	0.659795	0.571770	0.217688
	C6040	C	0.661660	0.567560	0.233497
	C6041	C	0.645186	0.570710	0.243522
	C6042	C	0.627411	0.577992	0.237517
	C6043	C	0.625358	0.581843	0.221045
	C6044	C	0.641434	0.578595	0.210969
	C6045	C	0.684160	0.561498	0.238269
	C6046	C	0.681311	0.569588	0.213276
	N6047	N	0.695600	0.563654	0.226403
	O6048	O	0.686986	0.572656	0.202004
	O6049	O	0.691972	0.556056	0.249811
	C6050	C	0.614960	0.582534	0.254563
	C6051	C	0.641507	0.567460	0.260190
	N6052	N	0.623957	0.575781	0.267680
	O6053	O	0.650171	0.558832	0.265406
	O6054	O	0.600326	0.590562	0.257545
	C6055	C	0.638529	0.587161	0.199583
	C6056	C	0.609277	0.590522	0.212862
	N6057	N	0.619286	0.594491	0.201906
	O6058	O	0.591665	0.594198	0.215084
	O6059	O	0.650435	0.588982	0.191563
	F6060	F	-0.044187	0.448779	0.219867
	C6061	C	-0.019880	0.450298	0.238849
	C6062	C	-0.002108	0.448854	0.231620
	F6063	F	-0.010002	0.445176	0.205077
	C6064	C	0.023893	0.451092	0.251783
	C6065	C	0.031150	0.454123	0.278390
	F6066	F	0.056113	0.456301	0.297947
	C6067	C	0.013120	0.455277	0.285253
	F6068	F	0.021063	0.458885	0.311715
	C6069	C	-0.013086	0.452820	0.264756
	F6070	F	0.097571	0.864097	0.151978
	C6071	C	0.109206	0.871934	0.184059
	C6072	C	0.106947	0.853867	0.175544
	F6073	F	0.091319	0.828080	0.134231
	C6074	C	0.120959	0.862557	0.210060
	C6075	C	0.137899	0.889826	0.253484
	F6076	F	0.153032	0.899034	0.287749
	C6077	C	0.138697	0.907391	0.261235
	F6078	F	0.153837	0.933069	0.302358
	C6079	C	0.123133	0.898216	0.225962
	F6080	F	0.379470	0.542744	0.238488
	C6081	C	0.381143	0.525242	0.210750
	C6082	C	0.404822	0.524305	0.226156
	F6083	F	0.422751	0.538225	0.265444
	C6084	C	0.410614	0.509384	0.201585
	C6085	C	0.388893	0.492255	0.157843
	F6086	F	0.392910	0.476562	0.132560
	C6087	C	0.363334	0.491389	0.140585
	F6088	F	0.342314	0.474138	0.098109
	C6089	C	0.359740	0.508649	0.167487
	F6090	F	0.275212	0.534445	0.062549
	C6091	C	0.291810	0.561188	0.102637
	C6092	C	0.304013	0.578872	0.111813
	F6093	F	0.300739	0.569227	0.081612
	C6094	C	0.320069	0.606691	0.152574
	C6095	C	0.322326	0.615972	0.182832
	F6096	F	0.335563	0.642023	0.220446
	C6097	C	0.311805	0.598666	0.174860
	F6098	F	0.315841	0.608495	0.205630
	C6099	C	0.297428	0.571217	0.135402
	F6100	F	0.836112	0.892112	0.221047
	C6101	C	0.822565	0.865990	0.183153
	C6102	C	0.811987	0.848625	0.175058
	F6103	F	0.816100	0.858416	0.205844
	C6104	C	0.797430	0.821140	0.135421
	C6105	C	0.791848	0.811179	0.102729
	F6106	F	0.775024	0.784409	0.062457
	C6107	C	0.804095	0.828915	0.112013
	F6108	F	0.800777	0.819310	0.081815
	C6109	C	0.820275	0.856750	0.152904
	F6110	F	0.699656	0.766916	0.146017
	C6111	C	0.725919	0.788806	0.191245
	C6112	C	0.722482	0.801341	0.218646
	F6113	F	0.692988	0.790844	0.199428
	C6114	C	0.749178	0.824646	0.266139
	C6115	C	0.779657	0.833175	0.285127
	F6116	F	0.805334	0.853195	0.329462
	C6117	C	0.783358	0.820852	0.257931
	F6118	F	0.812892	0.829927	0.276940
	C6119	C	0.756678	0.799200	0.210965
	F6120	F	0.261112	0.859071	0.311312
	C6121	C	0.252973	0.837473	0.273662
	C6122	C	0.276985	0.839272	0.276994
	F6123	F	0.307896	0.862334	0.317867
	C6124	C	0.269225	0.817328	0.238186
	C6125	C	0.236602	0.793433	0.195783
	F6126	F	0.228452	0.772335	0.157960
	C6127	C	0.212657	0.791346	0.192572
	F6128	F	0.181806	0.768025	0.151973
	C6129	C	0.220436	0.813564	0.231352
	F6130	F	0.652219	0.648326	0.286709
	C6131	C	0.637455	0.639419	0.252824
	C6132	C	0.638388	0.657159	0.260961
	F6133	F	0.653428	0.682743	0.302132
	C6134	C	0.623101	0.648271	0.226043
	C6135	C	0.609207	0.622066	0.184063
	F6136	F	0.597963	0.614551	0.152418
	C6137	C	0.606815	0.603819	0.175156
	F6138	F	0.591299	0.578128	0.133801
	C6139	C	0.620542	0.612221	0.209304
	F6140	F	0.558315	0.541586	0.206077
	C6141	C	0.577658	0.553789	0.243870
	C6142	C	0.563686	0.547389	0.248887
	F6143	F	0.531680	0.526820	0.213490
	C6144	C	0.582527	0.562183	0.290212
	C6145	C	0.616075	0.582646	0.325474
	F6146	F	0.634576	0.597657	0.365837
	C6147	C	0.630333	0.587403	0.318821
	F6148	F	0.662493	0.606350	0.352378
	C6149	C	0.611238	0.572634	0.277406
	C6150	C	0.497232	0.507644	0.263587
	C6151	C	0.525640	0.515821	0.277056
	C6152	C	0.537857	0.531506	0.282790
	C6153	C	0.521686	0.539118	0.275517
	C6154	C	0.491604	0.528870	0.258107
	C6155	C	0.479497	0.513432	0.252528
	C6156	C	0.537377	0.504360	0.281698
	C6157	C	0.490398	0.491369	0.260578
	N6158	N	0.515003	0.489587	0.270878
	O6159	O	0.469223	0.481936	0.252471
	O6160	O	0.560656	0.506350	0.292016
	C6161	C	0.540185	0.555810	0.284461
	C6162	C	0.566468	0.541922	0.294364
	N6163	N	0.566389	0.556215	0.294453
	O6164	O	0.585698	0.538716	0.300938
	O6165	O	0.535080	0.567014	0.283524
	C6166	C	0.445837	0.503436	0.229631
	C6167	C	0.467352	0.530985	0.242253
	N6168	N	0.439569	0.514013	0.223030
	O6169	O	0.469378	0.544107	0.244435
	O6170	O	0.426472	0.488562	0.216881
	C6171	C	0.383760	0.660430	0.207314
	C6172	C	0.361256	0.663910	0.198400
	C6173	C	0.368785	0.684596	0.212123
	C6174	C	0.399530	0.702263	0.237337
	C6175	C	0.422866	0.700359	0.250028
	C6176	C	0.414809	0.678684	0.233197
	C6177	C	0.331270	0.641742	0.171889
	C6178	C	0.369346	0.636573	0.187687
	N6179	N	0.337864	0.626068	0.166807
	O6180	O	0.381297	0.627519	0.189126
	O6181	O	0.306313	0.637362	0.157489
	C6182	C	0.402049	0.721100	0.245383
	C6183	C	0.350706	0.693186	0.205440
	N6184	N	0.371855	0.714189	0.223952
	O6185	O	0.324662	0.685723	0.189629
	O6186	O	0.424572	0.738748	0.265044
	C6187	C	0.442593	0.678917	0.243695
	C6188	C	0.456981	0.717367	0.277238
	N6189	N	0.466494	0.702062	0.268151
	O6190	O	0.473863	0.739856	0.302663
	O6191	O	0.445225	0.663015	0.233183
	C6192	C	0.688660	0.854524	0.327169
	C6193	C	0.697818	0.857050	0.314681
	C6194	C	0.717260	0.850796	0.310915
	C6195	C	0.728039	0.843020	0.321193
	C6196	C	0.720831	0.842435	0.336994
	C6197	C	0.700368	0.847276	0.338592
	C6198	C	0.681078	0.864301	0.303486
	C6199	C	0.665448	0.859701	0.323743
	N6200	N	0.662145	0.865997	0.310038
	O6201	O	0.651165	0.858555	0.329980
	O6202	O	0.682559	0.868107	0.291122
	C6203	C	0.744783	0.834394	0.309313
	C6204	C	0.727123	0.847462	0.292061
	N6205	N	0.743794	0.837588	0.292133
	O6206	O	0.721014	0.850637	0.276909
	O6207	O	0.755470	0.824795	0.310649
	C6208	C	0.693570	0.841278	0.350388
	C6209	C	0.728645	0.834042	0.348871
	N6210	N	0.711004	0.833141	0.355632
	O6211	O	0.745955	0.828706	0.352257
	O6212	O	0.676439	0.842019	0.353961
	C6213	C	0.378168	0.824506	0.259678
	C6214	C	0.363089	0.835328	0.262439
	C6215	C	0.337153	0.826586	0.253483
	C6216	C	0.326634	0.806776	0.240816
	C6217	C	0.340661	0.794892	0.235535
	C6218	C	0.366789	0.804006	0.245677
	C6219	C	0.379998	0.855421	0.275474
	C6220	C	0.404880	0.837156	0.270968
	N6221	N	0.405274	0.855797	0.280770
	O6222	O	0.422877	0.832753	0.271296
	O6223	O	0.374059	0.868397	0.279553
	C6224	C	0.299486	0.801173	0.233942
	C6225	C	0.316498	0.834497	0.255343
	N6226	N	0.293815	0.817859	0.242091
	O6227	O	0.317890	0.851425	0.266203
	O6228	O	0.285023	0.786137	0.224448
	C6229	C	0.378395	0.789240	0.240747
	C6230	C	0.333486	0.773230	0.221790
	N6231	N	0.357342	0.771098	0.226449
	O6232	O	0.312277	0.759484	0.208887
	O6233	O	0.400695	0.791394	0.247241
	C6234	C	0.577569	0.693402	0.243253
	C6235	C	0.589323	0.718096	0.267864
	C6236	C	0.619214	0.734492	0.289728
	C6237	C	0.637273	0.726296	0.287375
	C6238	C	0.626128	0.702056	0.264494
	C6239	C	0.596282	0.685723	0.242389
	C6240	C	0.567259	0.723295	0.270060
	C6241	C	0.546724	0.681079	0.226446
	N6242	N	0.542894	0.700729	0.246043
	O6243	O	0.527964	0.659067	0.201292
	O6244	O	0.569437	0.742751	0.289534
	C6245	C	0.667995	0.747980	0.314277
	C6246	C	0.637642	0.761593	0.318014
	N6247	N	0.666313	0.768311	0.330781
	O6248	O	0.630425	0.775531	0.328322
	O6249	O	0.690037	0.748774	0.320966
	C6250	C	0.590394	0.661522	0.221432
	C6251	C	0.640490	0.688608	0.258206
	N6252	N	0.617537	0.664201	0.231734
	O6253	O	0.665866	0.695917	0.271937
	O6254	O	0.567598	0.642962	0.199970
	F6255	F	0.471054	0.403332	0.184278
	C6256	C	0.494141	0.430655	0.224612
	C6257	C	0.493230	0.445646	0.226700
	F6258	F	0.469662	0.432506	0.188139
	C6259	C	0.516543	0.474317	0.268639
	C6260	C	0.541946	0.487419	0.308075
	F6261	F	0.564987	0.514769	0.348607
	C6262	C	0.543552	0.472327	0.305650
	F6263	F	0.568771	0.485209	0.343468
	C6264	C	0.519071	0.443830	0.264236
	F6265	F	0.357434	0.698035	0.160359
	C6266	C	0.360466	0.719441	0.191284
	C6267	C	0.357649	0.733794	0.192354
	F6268	F	0.350018	0.725026	0.160690
	C6269	C	0.362408	0.757097	0.225992
	C6270	C	0.369894	0.765510	0.258219
	F6271	F	0.376147	0.788441	0.292227
	C6272	C	0.370119	0.749879	0.254708
	F6273	F	0.373493	0.756474	0.282368
	C6274	C	0.366109	0.726977	0.221944
	F6275	F	0.489976	0.695242	0.205066
	C6276	C	0.497861	0.698905	0.231589
	C6277	C	0.480024	0.700258	0.238697
	F6278	F	0.455651	0.698655	0.219605
	C6279	C	0.486818	0.702774	0.264598
	C6280	C	0.513106	0.705347	0.285250
	F6281	F	0.520935	0.708795	0.311496
	C6282	C	0.531196	0.704277	0.278499
	F6283	F	0.556109	0.706385	0.297961
	C6284	C	0.523914	0.701211	0.251844
	F6285	F	0.670555	0.908671	0.379882
	C6286	C	0.647028	0.894004	0.339711
	C6287	C	0.626915	0.899902	0.333910
	F6288	F	0.631777	0.920166	0.368666
	C6289	C	0.601920	0.885072	0.292490
	C6290	C	0.600072	0.866179	0.259073
	F6291	F	0.579361	0.854314	0.221610
	C6292	C	0.619481	0.859596	0.264229
	F6293	F	0.615465	0.840173	0.230110
	C6294	C	0.642993	0.873053	0.304456
	F6295	F	0.714097	0.826302	0.419358
	C6296	C	0.704010	0.814292	0.383944
	C6297	C	0.714410	0.830279	0.389635
	F6298	F	0.734506	0.857546	0.430469
	C6299	C	0.703641	0.818007	0.352713
	C6300	C	0.683941	0.789533	0.310752
	F6301	F	0.674517	0.777463	0.275531
	C6302	C	0.673578	0.773602	0.305034
	F6303	F	0.654260	0.746329	0.264327
	C6304	C	0.682431	0.785698	0.340990
	F6305	F	0.378749	0.831793	0.206190
	C6306	C	0.410524	0.853345	0.245419
	C6307	C	0.429931	0.860793	0.246032
	F6308	F	0.416449	0.846214	0.207363
	C6309	C	0.463269	0.882881	0.285980
	C6310	C	0.476480	0.898111	0.326160
	F6311	F	0.508165	0.919790	0.365338
	C6312	C	0.456994	0.890803	0.325718
	F6313	F	0.469967	0.905950	0.364641
	C6314	C	0.423970	0.867560	0.284847
	C6315	C	0.539115	0.891032	0.279450
	C6316	C	0.547476	0.900089	0.274041
	C6317	C	0.533331	0.909367	0.268553
	C6318	C	0.512062	0.910427	0.270391
	C6319	C	0.503504	0.901077	0.275505
	C6320	C	0.516834	0.891344	0.279896
	C6321	C	0.573094	0.898850	0.277786
	C6322	C	0.557442	0.882073	0.283824
	N6323	N	0.578295	0.888046	0.284119
	O6324	O	0.555739	0.871596	0.286401
	O6325	O	0.587463	0.905538	0.276480
	C6326	C	0.502712	0.923061	0.267233
	C6327	C	0.537972	0.921091	0.263551
	N6328	N	0.519015	0.929101	0.263241
	O6329	O	0.554082	0.923806	0.260402
	O6330	O	0.485968	0.928603	0.269508
	C6331	C	0.502563	0.882383	0.283841
	C6332	C	0.481518	0.899869	0.278553
	N6333	N	0.482237	0.888825	0.284262
	O6334	O	0.465747	0.906568	0.276455
	O6335	O	0.505926	0.871128	0.285043
	C6336	C	0.020928	0.736964	0.373045
	C6337	C	0.008834	0.721526	0.367474
	C6338	C	-0.021063	0.711549	0.350584
	C6339	C	-0.037725	0.718515	0.342082
	C6340	C	-0.025276	0.734526	0.348435
	C6341	C	0.003393	0.743064	0.362583
	C6342	C	0.033095	0.719417	0.383333
	C6343	C	0.054582	0.746947	0.395908
	N6344	N	0.060847	0.736344	0.402463
	O6345	O	0.073948	0.761830	0.408671
	O6346	O	0.031089	0.706322	0.381204
	C6347	C	-0.066226	0.708235	0.330777
	C6348	C	-0.039792	0.694533	0.341027
	N6349	N	-0.066124	0.693971	0.330743
	O6350	O	-0.034723	0.683276	0.341857
	O6351	O	-0.085418	0.711487	0.324292
	C6352	C	0.010000	0.759042	0.365027
	C6353	C	-0.037139	0.745834	0.343498
	N6354	N	-0.014722	0.760675	0.354438
	O6355	O	-0.060530	0.743697	0.332904
	O6356	O	0.031127	0.768410	0.373015
	F6357	F	0.077688	0.712255	0.360066
	C6358	C	0.095623	0.726112	0.399298
	C6359	C	0.119148	0.724996	0.414468
	F6360	F	0.120827	0.707543	0.386708
	C6361	C	0.140588	0.741553	0.457703
	C6362	C	0.137029	0.758808	0.484669
	F6363	F	0.158063	0.776009	0.527108
	C6364	C	0.111492	0.757987	0.467512
	F6365	F	0.107480	0.773642	0.492824
	C6366	C	0.089789	0.740944	0.423843
	F6367	F	0.029033	0.846858	0.440835
	C6368	C	0.005956	0.819536	0.400531
	C6369	C	0.006980	0.804569	0.398483
	F6370	F	0.030470	0.817755	0.437111
	C6371	C	-0.016306	0.775896	0.356578
	C6372	C	-0.041648	0.762748	0.317072
	F6373	F	-0.064716	0.735402	0.276588
	C6374	C	-0.043285	0.777804	0.319421
	F6375	F	-0.068536	0.764890	0.281576
	C6376	C	-0.018915	0.806317	0.360843
	F6377	F	0.968318	0.723210	0.411524
	C6378	C	0.936303	0.702617	0.376000
	C6379	C	0.922218	0.695966	0.380666
	F6380	F	0.941457	0.708117	0.418400
	C6381	C	0.888620	0.677114	0.347029
	C6382	C	0.869649	0.662437	0.305714
	F6383	F	0.837481	0.643437	0.272010
	C6384	C	0.884045	0.667338	0.299312
	F6385	F	0.865668	0.652399	0.259030
	C6386	C	0.917602	0.687871	0.334740
	C6387	C	0.190590	0.725922	0.482914
	C6388	C	0.200736	0.732210	0.475115
	C6389	C	0.218618	0.725594	0.467853
	C6390	C	0.227734	0.714152	0.470991
	C6391	C	0.220570	0.710517	0.483765
	C6392	C	0.201277	0.715622	0.488410
	C6393	C	0.185827	0.742578	0.470342
	C6394	C	0.167228	0.730832	0.480983
	N6395	N	0.164891	0.740348	0.472388
	O6396	O	0.152048	0.727053	0.484287
	O6397	O	0.189883	0.751200	0.465475
	C6398	C	0.241367	0.704885	0.453835
	C6399	C	0.227368	0.725184	0.450504
	N6400	N	0.239413	0.711211	0.440495
	O6401	O	0.224530	0.733809	0.444304
	O6402	O	0.250454	0.692774	0.448573
	C6403	C	0.193013	0.705219	0.493886
	C6404	C	0.227160	0.698555	0.489267
	N6405	N	0.209077	0.694994	0.493787
	O6406	O	0.244675	0.693328	0.490960
	O6407	O	0.176043	0.704788	0.497296
	C6408	C	-0.047892	0.849555	0.350149
	C6409	C	-0.039041	0.859160	0.345707
	C6410	C	-0.016852	0.858768	0.345092
	C6411	C	-0.004049	0.848485	0.348477
	C6412	C	-0.011841	0.839874	0.354942
	C6413	C	-0.033652	0.840364	0.355779
	C6414	C	-0.057599	0.867880	0.340918
	C6415	C	-0.073278	0.851039	0.346861
	N6416	N	-0.078451	0.861887	0.340608
	O6417	O	-0.087536	0.844460	0.348372
	O6418	O	-0.056027	0.878238	0.338118
	C6419	C	0.018270	0.850057	0.346052
	C6420	C	-0.003036	0.867300	0.340342
	N6421	N	0.017364	0.860935	0.340044
	O6422	O	-0.006760	0.878217	0.338510
	O6423	O	0.034387	0.843708	0.348757
	C6424	C	-0.037876	0.829028	0.361494
	C6425	C	-0.002759	0.826951	0.357562
	N6426	N	-0.018916	0.821017	0.361781
	O6427	O	0.013733	0.821177	0.354831
	O6428	O	-0.053724	0.826551	0.365100
	C6429	C	0.839666	0.677672	0.406131
	C6430	C	0.838445	0.682532	0.391391
	C6431	C	0.854888	0.679326	0.381305
	C6432	C	0.871968	0.671367	0.386234
	C6433	C	0.874782	0.668284	0.403945
	C6434	C	0.858410	0.671261	0.413546
	C6435	C	0.815668	0.688303	0.386120
	C6436	C	0.818376	0.680109	0.410933
	N6437	N	0.804147	0.686086	0.397868
	O6438	O	0.812785	0.677160	0.422384
	O6439	O	0.807755	0.693619	0.374371
	C6440	C	0.884745	0.667117	0.369688
	C6441	C	0.858236	0.682212	0.364056
	N6442	N	0.875772	0.673865	0.356559
	O6443	O	0.849393	0.690654	0.358511
	O6444	O	0.899581	0.659275	0.367035
	C6445	C	0.861225	0.662640	0.424833
	C6446	C	0.890326	0.659085	0.411277
	N6447	N	0.880341	0.655187	0.422324
	O6448	O	0.907577	0.655031	0.408448
	O6449	O	0.849364	0.660892	0.432954
	F6450	F	0.183349	0.641243	0.418390
	C6451	C	0.187719	0.651116	0.449382
	C6452	C	0.177024	0.633749	0.441245
	F6453	F	0.163381	0.607599	0.403303
	C6454	C	0.179564	0.643087	0.471718
	C6455	C	0.195901	0.670957	0.512692
	F6456	F	0.199383	0.680631	0.543035
	C6457	C	0.208129	0.688657	0.521906
	F6458	F	0.225083	0.715452	0.562236
	C6459	C	0.202389	0.678631	0.489081
	F6460	F	0.187244	0.670136	0.347992
	C6461	C	0.216787	0.679245	0.367021
	C6462	C	0.220495	0.666906	0.339827
	F6463	F	0.194830	0.646906	0.295502
	C6464	C	0.250970	0.675411	0.358813
	C6465	C	0.277658	0.698672	0.406294
	F6466	F	0.307165	0.709170	0.425545
	C6467	C	0.274198	0.711141	0.433652
	F6468	F	0.300454	0.733037	0.478885
	C6469	C	0.243439	0.700803	0.413936
	F6470	F	0.867951	0.829735	0.256071
	C6471	C	0.872883	0.850035	0.290889
	C6472	C	0.852932	0.856084	0.285260
	F6473	F	0.829286	0.841344	0.245032
	C6474	C	0.857055	0.877087	0.320594
	C6475	C	0.880612	0.890555	0.360828
	F6476	F	0.884731	0.910044	0.395040
	C6477	C	0.899960	0.883910	0.365892
	F6478	F	0.920742	0.895807	0.403386
	C6479	C	0.897977	0.864921	0.332348
	F6480	F	0.082994	0.904021	0.417281
	C6481	C	0.069638	0.889189	0.378475
	C6482	C	0.089060	0.896706	0.379168
	F6483	F	0.120782	0.918406	0.418507
	C6484	C	0.075728	0.882243	0.339592
	C6485	C	0.042785	0.858828	0.298616
	F6486	F	0.029933	0.843506	0.259624
	C6487	C	0.023253	0.851523	0.298131
	F6488	F	-0.008371	0.829684	0.258838
	C6489	C	0.036357	0.866921	0.338387
	F6490	F	0.908787	0.671991	0.490979
	C6491	C	0.893060	0.646191	0.449594
	C6492	C	0.890844	0.628105	0.441029
	F6493	F	0.902372	0.635866	0.473004
	C6494	C	0.876817	0.601802	0.399045
	C6495	C	0.861320	0.592695	0.363856
	F6496	F	0.846149	0.567023	0.322696
	C6497	C	0.862217	0.610324	0.371734
	F6498	F	0.847173	0.601198	0.337571
	C6499	C	0.879171	0.637580	0.415188
	F6500	F	0.817836	0.731616	0.472359
	C6501	C	0.787002	0.708282	0.431672
	C6502	C	0.762984	0.706103	0.428309
	F6503	F	0.771024	0.727166	0.466040
	C6504	C	0.730390	0.682169	0.385835
	C6505	C	0.722742	0.660258	0.347125
	F6506	F	0.691851	0.637184	0.306173
	C6507	C	0.746851	0.662099	0.350651
	F6508	F	0.738816	0.640560	0.313082
	C6509	C	0.779350	0.686072	0.393017
	C6510	C	0.116008	0.589484	0.417304
	C6511	C	0.138785	0.586379	0.427080
	C6512	C	0.131323	0.565732	0.413443
	C6513	C	0.100378	0.547680	0.387413
	C6514	C	0.077406	0.550191	0.376160
	C6515	C	0.085397	0.571808	0.392855
	C6516	C	0.168497	0.608182	0.452723
	C6517	C	0.130425	0.613369	0.436995
	N6518	N	0.161823	0.623760	0.457596
	O6519	O	0.118523	0.622502	0.435751
	O6520	O	0.193336	0.612402	0.466731
	C6521	C	0.097950	0.528940	0.379585
	C6522	C	0.149247	0.556856	0.419450
	N6523	N	0.128135	0.535830	0.400925
	O6524	O	0.175168	0.564174	0.434883
	O6525	O	0.075488	0.511350	0.360076
	C6526	C	0.057311	0.571215	0.381488
	C6527	C	0.043090	0.532876	0.348211
	N6528	N	0.033406	0.548036	0.356968
	O6529	O	0.026205	0.510306	0.322564
	O6530	O	0.054485	0.586924	0.391521
	C6531	C	0.311034	0.645007	0.296991
	C6532	C	0.302622	0.643270	0.310764
	C6533	C	0.283156	0.649499	0.314475
	C6534	C	0.271618	0.656535	0.302980
	C6535	C	0.279518	0.657757	0.288257
	C6536	C	0.299307	0.652231	0.285522
	C6537	C	0.319200	0.635869	0.321720
	C6538	C	0.334453	0.640048	0.300788
	N6539	N	0.337973	0.633994	0.314893
	O6540	O	0.348694	0.641146	0.294474
	O6541	O	0.317733	0.632104	0.334143
	C6542	C	0.255326	0.665592	0.315541
	C6543	C	0.273021	0.652596	0.332922
	N6544	N	0.256343	0.662455	0.332807
	O6545	O	0.278973	0.649293	0.347868
	O6546	O	0.244897	0.675397	0.314535
	C6547	C	0.306352	0.658468	0.274136
	C6548	C	0.271248	0.665676	0.275586
	N6549	N	0.288860	0.666541	0.268771
	O6550	O	0.253704	0.670765	0.271780
	O6551	O	0.323678	0.657921	0.270909
	C6552	C	0.771969	0.907063	0.303702
	C6553	C	0.782828	0.899385	0.314151
	C6554	C	0.802250	0.893106	0.310365
	C6555	C	0.811265	0.895471	0.297621
	C6556	C	0.799113	0.902241	0.285402
	C6557	C	0.779005	0.907450	0.287597
	C6558	C	0.773131	0.902902	0.333276
	C6559	C	0.755395	0.915861	0.315833
	N6560	N	0.756472	0.912781	0.333190
	O6561	O	0.744756	0.925487	0.314524
	O6562	O	0.779337	0.899842	0.348609
	C6563	C	0.834486	0.890304	0.301073
	C6564	C	0.819123	0.886005	0.321812
	N6565	N	0.837955	0.884194	0.315083
	O6566	O	0.817780	0.882357	0.334430
	O6567	O	0.848661	0.891328	0.294638
	C6568	C	0.771161	0.915791	0.275631
	C6569	C	0.806213	0.908522	0.274097
	N6570	N	0.788810	0.916681	0.268873
	O6571	O	0.823506	0.907933	0.270808
	O6572	O	0.753824	0.921096	0.272178
	C6573	C	0.132289	0.945089	0.377279
	C6574	C	0.158800	0.954566	0.388253
	C6575	C	0.173308	0.943127	0.383992
	C6576	C	0.162338	0.922911	0.370407
	C6577	C	0.136580	0.914352	0.361834
	C6578	C	0.121307	0.924984	0.364160
	C6579	C	0.166037	0.976275	0.402107
	C6580	C	0.120836	0.960000	0.382518
	N6581	N	0.142057	0.978286	0.397155
	O6582	O	0.098507	0.957825	0.375954
	O6583	O	0.187382	0.990145	0.415306
	C6584	C	0.183476	0.915445	0.369561
	C6585	C	0.200406	0.948676	0.390758
	N6586	N	0.206206	0.932122	0.382903
	O6587	O	0.214765	0.963600	0.400016
	O6588	O	0.182342	0.898750	0.359236
	C6589	C	0.094592	0.912351	0.352883
	C6590	C	0.119790	0.894402	0.349099
	N6591	N	0.094404	0.893925	0.343556
	O6592	O	0.125902	0.881617	0.345439
	O6593	O	0.076446	0.916619	0.352230
	C6594	C	0.922445	0.556816	0.382014
	C6595	C	0.911112	0.532441	0.358325
	C6596	C	0.881187	0.515987	0.336345
	C6597	C	0.862719	0.523816	0.337695
	C6598	C	0.874312	0.548504	0.361849
	C6599	C	0.904190	0.564901	0.384070
	C6600	C	0.932914	0.527056	0.355555
	C6601	C	0.953398	0.569241	0.399085
	N6602	N	0.957184	0.549562	0.379387
	O6603	O	0.972228	0.591306	0.424412
	O6604	O	0.930649	0.507542	0.335898
	C6605	C	0.832023	0.502116	0.310804
	C6606	C	0.862485	0.488612	0.307266
	N6607	N	0.833689	0.481752	0.294181
	O6608	O	0.869618	0.474594	0.296672
	O6609	O	0.809986	0.501312	0.304149
	C6610	C	0.909752	0.588813	0.404249
	C6611	C	0.859625	0.561644	0.367333
	N6612	N	0.882493	0.586004	0.393649
	O6613	O	0.834101	0.554167	0.353198
	O6614	O	0.932433	0.607282	0.425444
	C6615	C	0.672885	0.692644	0.382946
	C6616	C	0.662423	0.672918	0.370460
	C6617	C	0.636568	0.664279	0.361690
	C6618	C	0.621536	0.675144	0.364521
	C6619	C	0.632850	0.695554	0.378329
	C6620	C	0.658618	0.704303	0.387686
	C6621	C	0.683120	0.665040	0.368716
	C6622	C	0.699974	0.698171	0.389692
	N6623	N	0.705733	0.681585	0.381782
	O6624	O	0.714331	0.713077	0.398922
	O6625	O	0.681799	0.648192	0.358046
	C6626	C	0.595023	0.662711	0.353679
	C6627	C	0.619790	0.644341	0.348983
	N6628	N	0.594652	0.644111	0.343971
	O6629	O	0.625726	0.631373	0.344928
	O6630	O	0.577142	0.667229	0.353574
	C6631	C	0.666160	0.726282	0.402157
	C6632	C	0.621380	0.710445	0.383514
	N6633	N	0.642477	0.728599	0.397862
	O6634	O	0.599141	0.708365	0.377154
	O6635	O	0.687488	0.740105	0.415277
	F6636	F	-0.056080	0.543889	0.327426
	C6637	C	-0.031148	0.546019	0.346909
	C6638	C	-0.013177	0.544798	0.339941
	F6639	F	-0.021069	0.541281	0.313598
	C6640	C	0.013082	0.547325	0.360524
	C6641	C	0.019906	0.549870	0.386468
	F6642	F	0.044265	0.551455	0.405537
	C6643	C	0.002091	0.551240	0.393609
	F6644	F	0.010080	0.555030	0.420306
	C6645	C	-0.023882	0.549047	0.373515
	F6646	F	0.127065	0.993951	0.342947
	C6647	C	0.130096	1.000226	0.370144
	C6648	C	0.130002	0.984342	0.366130
	F6649	F	0.123783	0.961470	0.332069
	C6650	C	0.137200	0.992478	0.397980
	C6651	C	0.141952	1.015739	0.431699
	F6652	F	0.149415	1.024293	0.463100
	C6653	C	0.139267	1.030252	0.433089
	F6654	F	0.142430	1.051689	0.464209
	C6655	C	0.133886	1.022978	0.402787
	F6656	F	0.384627	0.659861	0.394889
	C6657	C	0.380569	0.640382	0.360741
	C6658	C	0.400026	0.633849	0.365983
	F6659	F	0.420715	0.645723	0.403455
	C6660	C	0.398228	0.614978	0.332620
	C6661	C	0.373277	0.600149	0.291195
	F6662	F	0.368463	0.579900	0.256487
	C6663	C	0.353190	0.606061	0.285367
	F6664	F	0.329609	0.591312	0.245124
	C6665	C	0.357144	0.626966	0.320547
	F6666	F	0.265342	0.642065	0.193858
	C6667	C	0.285339	0.669329	0.234630
	C6668	C	0.295801	0.685292	0.240303
	F6669	F	0.285616	0.673251	0.204824
	C6670	C	0.317305	0.713885	0.283201
	C6671	C	0.326171	0.726006	0.319184
	F6672	F	0.345454	0.753279	0.359858
	C6673	C	0.315855	0.710106	0.313534
	F6674	F	0.325306	0.722207	0.348791
	C6675	C	0.296179	0.681634	0.271607
	F6676	F	0.845764	1.003599	0.360528
	C6677	C	0.826324	0.976321	0.319714
	C6678	C	0.815994	0.960341	0.313926
	F6679	F	0.825464	0.972362	0.349130
	C6680	C	0.796246	0.931868	0.271899
	C6681	C	0.785487	0.919655	0.235029
	F6682	F	0.765329	0.892390	0.194126
	C6683	C	0.795991	0.935702	0.240857
	F6684	F	0.785846	0.923748	0.205463
	C6685	C	0.817529	0.964291	0.283835
	F6686	F	0.694889	0.897099	0.295747
	C6687	C	0.720552	0.917132	0.340093
	C6688	C	0.716816	0.929430	0.367248
	F6689	F	0.687251	0.920252	0.348162
	C6690	C	0.743460	0.951012	0.414178
	C6691	C	0.774239	0.961460	0.433964
	F6692	F	0.800473	0.983299	0.479177
	C6693	C	0.777727	0.949041	0.406644
	F6694	F	0.807235	0.959534	0.425906
	C6695	C	0.751055	0.925712	0.359142
	F6696	F	0.271544	0.977639	0.467216
	C6697	C	0.263482	0.956611	0.429457
	C6698	C	0.287495	0.958773	0.432803
	F6699	F	0.318356	0.982052	0.473521
	C6700	C	0.279804	0.936598	0.394093
	C6701	C	0.247278	0.912696	0.351697
	F6702	F	0.239218	0.891142	0.314108
	C6703	C	0.223188	0.910870	0.348208
	F6704	F	0.192294	0.887796	0.307280
	C6705	C	0.230872	0.932723	0.386970
	F6706	F	0.649953	0.774683	0.463947
	C6707	C	0.642477	0.766121	0.432533
	C6708	C	0.639647	0.780561	0.433794
	F6709	F	0.642816	0.802001	0.464920
	C6710	C	0.634147	0.773231	0.403387
	C6711	C	0.630208	0.750404	0.370611
	F6712	F	0.627156	0.744106	0.343382
	C6713	C	0.630232	0.734580	0.366711
	F6714	F	0.623924	0.711667	0.332575
	C6715	C	0.637591	0.742793	0.398699
	F6716	F	0.530101	0.593850	0.260194
	C6717	C	0.543079	0.609080	0.299175
	C6718	C	0.523603	0.601850	0.298813
	F6719	F	0.491944	0.580093	0.259610
	C6720	C	0.536804	0.617218	0.339087
	C6721	C	0.570097	0.639452	0.379109
	F6722	F	0.583551	0.654202	0.417894
	C6723	C	0.589468	0.646884	0.379673
	F6724	F	0.621225	0.668494	0.418909
	C6725	C	0.576040	0.632453	0.340085
	C6726	C	0.466802	0.590654	0.356483
	C6727	C	0.488038	0.589575	0.354586
	C6728	C	0.496289	0.598643	0.348947
	C6729	C	0.483586	0.609029	0.345752
	C6730	C	0.461033	0.609041	0.345680
	C6731	C	0.452643	0.599929	0.351004
	C6732	C	0.497303	0.576841	0.357553
	C6733	C	0.462212	0.578955	0.361539
	N6734	N	0.481090	0.570865	0.361684
	O6735	O	0.446196	0.576316	0.364845
	O6736	O	0.513936	0.571199	0.355071
	C6737	C	0.497491	0.617657	0.341175
	C6738	C	0.518595	0.600203	0.346499
	N6739	N	0.517858	0.611262	0.340814
	O6740	O	0.534575	0.593711	0.348946
	O6741	O	0.493865	0.628676	0.339531
	C6742	C	0.426984	0.601118	0.347186
	C6743	C	0.442822	0.618125	0.341549
	N6744	N	0.421874	0.612033	0.341051
	O6745	O	0.444670	0.628771	0.339281
	O6746	O	0.412516	0.594311	0.348285
	C6747	C	0.380705	0.765330	0.335045
	C6748	C	0.362578	0.773459	0.337288
	C6749	C	0.373933	0.797930	0.360826
	C6750	C	0.403653	0.814179	0.382638
	C6751	C	0.422450	0.806583	0.381937
	C6752	C	0.410896	0.782016	0.357700
	C6753	C	0.331735	0.751629	0.310009
	C6754	C	0.362177	0.738107	0.306416
	N6755	N	0.333400	0.731267	0.293387
	O6756	O	0.369399	0.724166	0.296050
	O6757	O	0.309630	0.750768	0.303174
	C6758	C	0.409381	0.838259	0.403280
	C6759	C	0.359222	0.811048	0.366274
	N6760	N	0.382100	0.835426	0.392637
	O6761	O	0.333680	0.803547	0.352088
	O6762	O	0.432165	0.856845	0.424775
	C6763	C	0.432735	0.776674	0.354977
	C6764	C	0.453246	0.818911	0.398663
	N6765	N	0.457036	0.799236	0.378932
	O6766	O	0.471991	0.840935	0.423839
	O6767	O	0.430473	0.757154	0.335274
	C6768	C	0.690441	0.975886	0.482863
	C6769	C	0.700583	0.982202	0.475095
	C6770	C	0.718526	0.975656	0.467925
	C6771	C	0.727719	0.964265	0.471142
	C6772	C	0.720547	0.960595	0.483874
	C6773	C	0.701185	0.965622	0.488411
	C6774	C	0.685602	0.992516	0.470241
	C6775	C	0.667022	0.980731	0.480851
	N6776	N	0.664646	0.990236	0.472234
	O6777	O	0.651822	0.976907	0.484098
	O6778	O	0.689619	1.001130	0.465350
	C6779	C	0.741446	0.955094	0.454119
	C6780	C	0.727281	0.975282	0.450613
	N6781	N	0.739418	0.961384	0.440708
	O6782	O	0.724382	0.983881	0.444364
	O6783	O	0.750666	0.943083	0.449017
	C6784	C	0.692925	0.955190	0.493847
	C6785	C	0.727198	0.948670	0.489440
	N6786	N	0.709059	0.945028	0.493841
	O6787	O	0.744793	0.943526	0.491258
	O6788	O	0.675899	0.954690	0.497153
	C6789	C	0.372191	0.921661	0.386775
	C6790	C	0.354591	0.929127	0.381081
	C6791	C	0.338252	0.932400	0.391325
	C6792	C	0.339984	0.928033	0.406883
	C6793	C	0.357814	0.920660	0.412681
	C6794	C	0.374479	0.918009	0.403580
	C6795	C	0.358282	0.932406	0.364452
	C6796	C	0.384693	0.917191	0.369822
	N6797	N	0.375757	0.924019	0.356833
	O6798	O	0.399332	0.909167	0.366826
	O6799	O	0.349669	0.941088	0.359332
	C6800	C	0.318519	0.930262	0.411383
	C6801	C	0.316026	0.938753	0.387040
	N6802	N	0.304536	0.936535	0.398812
	O6803	O	0.308441	0.944444	0.375908
	O6804	O	0.312665	0.926993	0.422329
	C6805	C	0.389995	0.908754	0.410790
	C6806	C	0.360971	0.912324	0.424458
	N6807	N	0.380039	0.904830	0.421829
	O6808	O	0.349331	0.910749	0.432916
	O6809	O	0.407222	0.904693	0.407903
	C6810	C	0.577297	0.799898	0.375521
	C6811	C	0.585396	0.821688	0.392640
	C6812	C	0.616204	0.839652	0.417761
	C6813	C	0.638747	0.836215	0.426740
	C6814	C	0.631499	0.815893	0.413840
	C6815	C	0.600678	0.798045	0.388280
	C6816	C	0.557303	0.821081	0.381270
	C6817	C	0.543123	0.782764	0.348067
	N6818	N	0.533446	0.797932	0.356842
	O6819	O	0.526313	0.760280	0.322684
	O6820	O	0.554441	0.836762	0.391242
	C6821	C	0.668575	0.858207	0.452800
	C6822	C	0.630432	0.863307	0.436905
	N6823	N	0.661844	0.873730	0.457554
	O6824	O	0.618408	0.872282	0.435311
	O6825	O	0.693515	0.862571	0.467120
	C6826	C	0.598181	0.779160	0.380127
	C6827	C	0.649465	0.807076	0.419974
	N6828	N	0.628383	0.786082	0.401522
	O6829	O	0.675395	0.814409	0.435433
	O6830	O	0.575676	0.761474	0.360423
	F6831	F	0.434961	0.485085	0.275992
	C6832	C	0.458031	0.512433	0.316573
	C6833	C	0.456536	0.527573	0.319083
	F6834	F	0.431322	0.514752	0.281336
	C6835	C	0.480982	0.556082	0.360582
	C6836	C	0.505828	0.569206	0.400167
	F6837	F	0.528879	0.596535	0.440571
	C6838	C	0.506701	0.554156	0.397961
	F6839	F	0.530102	0.567254	0.436506
	C6840	C	0.483365	0.525484	0.355968
	F6841	F	0.345811	0.816604	0.321884
	C6842	C	0.360902	0.842229	0.363042
	C6843	C	0.361880	0.859930	0.371075
	F6844	F	0.346860	0.850872	0.336987
	C6845	C	0.378848	0.887170	0.414576
	C6846	C	0.392791	0.895723	0.448931
	F6847	F	0.408416	0.921472	0.490301
	C6848	C	0.390506	0.877567	0.440214
	F6849	F	0.402019	0.885250	0.472103
	C6850	C	0.376461	0.851284	0.398181
	F6851	F	0.478987	0.791189	0.313486
	C6852	C	0.486859	0.794687	0.339801
	C6853	C	0.468843	0.795858	0.346692
	F6854	F	0.443916	0.793727	0.327200
	C6855	C	0.476047	0.798815	0.373199
	C6856	C	0.502101	0.801122	0.393453
	F6857	F	0.509960	0.804749	0.419927
	C6858	C	0.519991	0.799843	0.386446
	F6859	F	0.544318	0.801388	0.405465
	C6860	C	0.513133	0.797237	0.360420
	F6861	F	0.657731	1.025876	0.526828
	C6862	C	0.636734	1.008662	0.484382
	C6863	C	0.611109	1.007732	0.467083
	F6864	F	0.607088	1.023411	0.492369
	C6865	C	0.589352	0.990581	0.423321
	C6866	C	0.595137	0.975662	0.398737
	F6867	F	0.577208	0.961757	0.359464
	C6868	C	0.618786	0.974690	0.414096
	F6869	F	0.620514	0.957245	0.386405
	C6870	C	0.640273	0.991354	0.457425
	F6871	F	0.699034	0.930535	0.542780
	C6872	C	0.695816	0.920935	0.512645
	C6873	C	0.707980	0.938642	0.521848
	F6874	F	0.724747	0.965406	0.562073
	C6875	C	0.702407	0.928667	0.489149
	C6876	C	0.687877	0.901186	0.449544
	F6877	F	0.683807	0.891395	0.418783
	C6878	C	0.677248	0.883820	0.441432
	F6879	F	0.663826	0.857727	0.403649
	C6880	C	0.679599	0.893090	0.471740
	F6881	F	0.337282	0.893515	0.272203
	C6882	C	0.369440	0.912510	0.305825
	C6883	C	0.383741	0.917245	0.299187
	F6884	F	0.365272	0.902242	0.258836
	C6885	C	0.417297	0.937697	0.334469
	C6886	C	0.436104	0.952467	0.375768
	F6887	F	0.468109	0.973056	0.411211
	C6888	C	0.422100	0.945989	0.380677
	F6889	F	0.441408	0.958217	0.418493
	C6890	C	0.388510	0.927200	0.347167
	C6891	C	0.508326	0.971038	0.366715
	C6892	C	0.520392	0.986406	0.372165
	C6893	C	0.502644	0.992167	0.361050
	C6894	C	0.474197	0.983950	0.347488
	C6895	C	0.461773	0.968022	0.341275
	C6896	C	0.478421	0.961061	0.349805
	C6897	C	0.554047	0.996398	0.395054
	C6898	C	0.532656	0.969053	0.382820
	N6899	N	0.560387	0.985940	0.401874
	O6900	O	0.530711	0.956073	0.380912
	O6901	O	0.573364	1.011190	0.407647
	C6902	C	0.462385	0.995296	0.342614
	C6903	C	0.509510	1.008456	0.364092
	N6904	N	0.484851	1.010167	0.353636
	O6905	O	0.530750	1.017949	0.372332
	O6906	O	0.438997	0.993167	0.332012
	C6907	C	0.459717	0.944119	0.340369
	C6908	C	0.433382	0.957910	0.330255
	N6909	N	0.433470	0.943665	0.330258
	O6910	O	0.414283	0.961268	0.323948
	O6911	O	0.464730	0.932822	0.341128
	C6912	C	0.047624	0.650297	0.524488
	C6913	C	0.039364	0.641329	0.530064
	C6914	C	0.017168	0.641719	0.530665
	C6915	C	0.003779	0.651403	0.526195
	C6916	C	0.012255	0.660690	0.520958
	C6917	C	0.033746	0.659863	0.519528
	C6918	C	0.057612	0.632283	0.534268
	C6919	C	0.073173	0.648990	0.528091
	N6920	N	0.078373	0.638168	0.534390
	O6921	O	0.087491	0.655638	0.526701
	O6922	O	0.055919	0.621806	0.536848
	C6923	C	-0.018243	0.650144	0.529170
	C6924	C	0.002988	0.632829	0.534754
	N6925	N	-0.017400	0.639205	0.535072
	O6926	O	0.006465	0.621671	0.536138
	O6927	O	-0.034135	0.656722	0.526865
	C6928	C	0.037866	0.671074	0.513594
	C6929	C	0.002768	0.673197	0.517567
	N6930	N	0.018861	0.679038	0.513203
	O6931	O	-0.013918	0.678794	0.519943
	O6932	O	0.053687	0.673508	0.509927
	F6933	F	0.079282	0.604369	0.471718
	C6934	C	0.100084	0.616269	0.509214
	C6935	C	0.119387	0.609581	0.514217
	F6936	F	0.115306	0.590136	0.480033
	C6937	C	0.142889	0.622981	0.554383
	C6938	C	0.146955	0.643923	0.589681
	F6939	F	0.170556	0.658605	0.629856
	C6940	C	0.126959	0.649936	0.584037
	F6941	F	0.131912	0.670246	0.618876
	C6942	C	0.101954	0.635143	0.542659
	F6943	F	0.064715	0.764651	0.598446
	C6944	C	0.041659	0.737302	0.557932
	C6945	C	0.043290	0.722226	0.555534
	F6946	F	0.068441	0.735134	0.593406
	C6947	C	0.018876	0.693719	0.514106
	C6948	C	-0.005951	0.680513	0.474422
	F6949	F	-0.029046	0.653192	0.434107
	C6950	C	-0.006888	0.695495	0.476491
	F6951	F	-0.030390	0.682335	0.437897
	C6952	C	0.016353	0.724171	0.518437
	F6953	F	1.008692	0.670367	0.616348
	C6954	C	0.977001	0.648688	0.577233
	C6955	C	0.957623	0.641399	0.576914
	F6956	F	0.970671	0.656643	0.615932
	C6957	C	0.924624	0.618100	0.536085
	C6958	C	0.911105	0.603731	0.496512
	F6959	F	0.879326	0.582171	0.457342
	C6960	C	0.930396	0.611177	0.497012
	F6961	F	0.916821	0.596526	0.458257
	C6962	C	0.963719	0.633321	0.536928
	C6963	C	0.188440	0.604332	0.576902
	C6964	C	0.197545	0.606805	0.564326
	C6965	C	0.216949	0.600515	0.560499
	C6966	C	0.227737	0.592746	0.570789
	C6967	C	0.220577	0.592208	0.586666
	C6968	C	0.200161	0.597096	0.588345
	C6969	C	0.180840	0.614092	0.553190
	C6970	C	0.165271	0.609556	0.573552
	N6971	N	0.161967	0.615849	0.559843
	O6972	O	0.151016	0.608440	0.579839
	O6973	O	0.182317	0.617892	0.540817
	C6974	C	0.244462	0.584104	0.558879
	C6975	C	0.226764	0.597141	0.541578
	N6976	N	0.243464	0.587293	0.541689
	O6977	O	0.220589	0.600262	0.526338
	O6978	O	0.255148	0.574504	0.560214
	C6979	C	0.193437	0.591170	0.600267
	C6980	C	0.228416	0.583838	0.598580
	N6981	N	0.210842	0.583002	0.605455
	O6982	O	0.245700	0.578474	0.601913
	O6983	O	0.176384	0.591991	0.603979
	C6984	C	-0.020764	0.763104	0.501971
	C6985	C	-0.008275	0.779118	0.508635
	C6986	C	0.021652	0.789112	0.525592
	C6987	C	0.037837	0.781534	0.532946
	C6988	C	0.025844	0.766168	0.527812
	C6989	C	-0.002835	0.757639	0.513652
	C6990	C	-0.032745	0.780858	0.492051
	C6991	C	-0.054331	0.753270	0.479338
	N6992	N	-0.060583	0.763819	0.472681
	O6993	O	-0.073674	0.738488	0.466738
	O6994	O	-0.030806	0.793807	0.493899
	C6995	C	0.066465	0.791949	0.544545
	C6996	C	0.040179	0.805808	0.534559
	N6997	N	0.066399	0.806226	0.544605
	O6998	O	0.035083	0.816999	0.533591
	O6999	O	0.085703	0.788754	0.551162
	C7000	C	-0.009800	0.741212	0.510347
	C7001	C	0.037327	0.754386	0.531838
	N7002	N	0.014822	0.739454	0.520702
	O7003	O	0.060536	0.756285	0.541985
	O7004	O	-0.031065	0.731674	0.502034
	C7005	C	0.827053	0.557252	0.491722
	C7006	C	0.838086	0.577500	0.505391
	C7007	C	0.864096	0.586277	0.514481
	C7008	C	0.878812	0.575112	0.510990
	C7009	C	0.868033	0.555227	0.498362
	C7010	C	0.841546	0.545801	0.487462
	C7011	C	0.817056	0.585070	0.506427
	C7012	C	0.799912	0.551686	0.484877
	N7013	N	0.794220	0.568329	0.492904
	O7014	O	0.785441	0.536686	0.475433
	O7015	O	0.818329	0.601873	0.516990
	C7016	C	0.905804	0.588005	0.522848
	C7017	C	0.880650	0.605991	0.526708
	N7018	N	0.906019	0.606455	0.532221
	O7019	O	0.874413	0.618651	0.530106
	O7020	O	0.924094	0.583874	0.523811
	C7021	C	0.834273	0.524092	0.473606
	C7022	C	0.879339	0.540185	0.492860
	N7023	N	0.858155	0.521974	0.478365
	O7024	O	0.901541	0.542218	0.499146
	O7025	O	0.812958	0.510289	0.460525
	F7026	F	0.174205	0.527314	0.525294
	C7027	C	0.183784	0.539404	0.560599
	C7028	C	0.173369	0.523474	0.554863
	F7029	F	0.153984	0.496195	0.514125
	C7030	C	0.182270	0.535578	0.590848
	C7031	C	0.203837	0.564172	0.633791
	F7032	F	0.214051	0.576191	0.669265
	C7033	C	0.214298	0.580157	0.639502
	F7034	F	0.234468	0.607428	0.680367
	C7035	C	0.203482	0.567877	0.602555
	F7036	F	0.192714	0.540599	0.449011
	C7037	C	0.222218	0.551114	0.468265
	C7038	C	0.225691	0.538638	0.440915
	F7039	F	0.199455	0.516791	0.395701
	C7040	C	0.256464	0.549056	0.460684
	C7041	C	0.283108	0.570629	0.507612
	F7042	F	0.312671	0.579798	0.526692
	C7043	C	0.279371	0.582900	0.534757
	F7044	F	0.305047	0.602970	0.579122
	C7045	C	0.248889	0.574389	0.515748
	F7046	F	0.892693	0.726387	0.382207
	C7047	C	0.888667	0.742041	0.407498
	C7048	C	0.863148	0.741235	0.390335
	F7049	F	0.842070	0.723967	0.347841
	C7050	C	0.859623	0.758540	0.417319
	C7051	C	0.881143	0.775206	0.460652
	F7052	F	0.879470	0.792685	0.488404
	C7053	C	0.904763	0.774195	0.475949
	F7054	F	0.922735	0.788108	0.515238
	C7055	C	0.910483	0.759225	0.451291
	F7056	F	0.134633	0.847726	0.616314
	C7057	C	0.116290	0.832774	0.576026
	C7058	C	0.130719	0.837717	0.569692
	F7059	F	0.162896	0.856681	0.603390
	C7060	C	0.111779	0.823093	0.528429
	C7061	C	0.078174	0.804290	0.494807
	F7062	F	0.058990	0.792165	0.457103
	C7063	C	0.064026	0.797691	0.499481
	F7064	F	0.032005	0.777104	0.463936
	C7065	C	0.082708	0.812336	0.540648
	F7066	F	0.876397	0.538677	0.543333
	C7067	C	0.870026	0.515749	0.509119
	C7068	C	0.869990	0.499865	0.505100
	F7069	F	0.872950	0.506073	0.532204
	C7070	C	0.866068	0.477056	0.472312
	C7071	C	0.860672	0.469813	0.442032
	F7072	F	0.857385	0.448323	0.410773
	C7073	C	0.858083	0.484405	0.443570
	F7074	F	0.850623	0.475889	0.412204
	C7075	C	0.862919	0.507698	0.477386
	F7076	F	0.807953	0.612666	0.568375
	C7077	C	0.777080	0.589572	0.527376
	C7078	C	0.752922	0.587665	0.523752
	F7079	F	0.760878	0.609202	0.561245
	C7080	C	0.720427	0.563707	0.481311
	C7081	C	0.712838	0.541545	0.442701
	F7082	F	0.682006	0.518227	0.401937
	C7083	C	0.736927	0.543746	0.446199
	F7084	F	0.728941	0.522765	0.408498
	C7085	C	0.769504	0.567698	0.488725
	C7086	C	0.118793	0.484086	0.538836
	C7087	C	0.137245	0.476242	0.537450
	C7088	C	0.125860	0.451754	0.513866
	C7089	C	0.095848	0.435229	0.491285
	C7090	C	0.077605	0.443328	0.493365
	C7091	C	0.088922	0.467685	0.516999
	C7092	C	0.167883	0.497882	0.564181
	C7093	C	0.137399	0.511371	0.567648
	N7094	N	0.166159	0.518189	0.580641
	O7095	O	0.130224	0.525350	0.578115
	O7096	O	0.189927	0.498691	0.570856
	C7097	C	0.090238	0.411265	0.470965
	C7098	C	0.140278	0.438353	0.507654
	N7099	N	0.117397	0.413975	0.481290
	O7100	O	0.165643	0.445672	0.521356
	O7101	O	0.067599	0.392832	0.449872
	C7102	C	0.067132	0.473085	0.519783
	C7103	C	0.046632	0.430900	0.476256
	N7104	N	0.042840	0.450575	0.495927
	O7105	O	0.027799	0.408838	0.450937
	O7106	O	0.069424	0.492613	0.539473
	C7107	C	0.309527	0.524057	0.391873
	C7108	C	0.300016	0.518393	0.400773
	C7109	C	0.282057	0.524925	0.407904
	C7110	C	0.272133	0.535663	0.403542
	C7111	C	0.280164	0.540076	0.392139
	C7112	C	0.299525	0.535047	0.387608
	C7113	C	0.314527	0.507634	0.404853
	C7114	C	0.333098	0.519357	0.394171
	N7115	N	0.335397	0.509793	0.402686
	O7116	O	0.348413	0.523283	0.391124
	O7117	O	0.310278	0.498829	0.409384
	C7118	C	0.258584	0.545010	0.420836
	C7119	C	0.272777	0.524875	0.424450
	N7120	N	0.260510	0.538669	0.434151
	O7121	O	0.275440	0.516098	0.430378
	O7122	O	0.249527	0.557142	0.426131
	C7123	C	0.307228	0.544948	0.381201
	C7124	C	0.272953	0.551459	0.385610
	N7125	N	0.290945	0.554974	0.380960
	O7126	O	0.255113	0.556349	0.383365
	O7127	O	0.324017	0.545225	0.377479
	C7128	C	0.772239	0.785706	0.403691
	C7129	C	0.781464	0.774357	0.406991
	C7130	C	0.799369	0.767766	0.399764
	C7131	C	0.809446	0.774003	0.391864
	C7132	C	0.798677	0.784233	0.386248
	C7133	C	0.779348	0.789297	0.390836
	C7134	C	0.772787	0.774832	0.424451
	C7135	C	0.758561	0.794940	0.420784
	N7136	N	0.760664	0.788743	0.434345
	O7137	O	0.749340	0.806943	0.425851
	O7138	O	0.775730	0.766296	0.430808
	C7139	C	0.832840	0.769129	0.393836
	C7140	C	0.814369	0.757478	0.404669
	N7141	N	0.835267	0.759687	0.402561
	O7142	O	0.810404	0.748928	0.409672
	O7143	O	0.847976	0.772879	0.390464
	C7144	C	0.772663	0.801178	0.385189
	C7145	C	0.806883	0.794598	0.380695
	N7146	N	0.790756	0.804766	0.380702
	O7147	O	0.823875	0.795059	0.377328
	O7148	O	0.755066	0.806321	0.383360
	C7149	C	0.125808	0.832207	0.471939
	C7150	C	0.142428	0.829503	0.462761
	C7151	C	0.160694	0.822584	0.469321
	C7152	C	0.161899	0.817681	0.483999
	C7153	C	0.145964	0.821375	0.494910
	C7154	C	0.128653	0.829119	0.489652
	C7155	C	0.139084	0.837639	0.450648
	C7156	C	0.110088	0.841251	0.464365
	N7157	N	0.119895	0.845018	0.453061
	O7158	O	0.092828	0.845283	0.467191
	O7159	O	0.150673	0.839150	0.442090
	C7160	C	0.184374	0.811585	0.488712
	C7161	C	0.181717	0.819886	0.464060
	N7162	N	0.195747	0.813670	0.476725
	O7163	O	0.187273	0.822829	0.452582
	O7164	O	0.192170	0.806124	0.500222
	C7165	C	0.115786	0.833255	0.506042
	C7166	C	0.142184	0.818039	0.511430
	N7167	N	0.124665	0.826390	0.518974
	O7168	O	0.150765	0.809335	0.516515
	O7169	O	0.100965	0.841111	0.508737
	C7170	C	0.922732	0.450122	0.499515
	C7171	C	0.914888	0.428692	0.483280
	C7172	C	0.884058	0.410704	0.458094
	C7173	C	0.861251	0.413766	0.448230
	C7174	C	0.868878	0.434683	0.462486
	C7175	C	0.899731	0.452593	0.488178
	C7176	C	0.942718	0.428981	0.493892
	C7177	C	0.956988	0.467348	0.527238
	N7178	N	0.966598	0.452123	0.518325
	O7179	O	0.973875	0.489893	0.552820
	O7180	O	0.945392	0.413115	0.483462
	C7181	C	0.831431	0.391795	0.422208
	C7182	C	0.869555	0.386677	0.438074
	N7183	N	0.838067	0.376152	0.417179
	O7184	O	0.881457	0.377536	0.439290
	O7185	O	0.806548	0.387513	0.408067
	C7186	C	0.902063	0.471201	0.495728
	C7187	C	0.850715	0.443196	0.455685
	N7188	N	0.871810	0.464187	0.474142
	O7189	O	0.824642	0.435668	0.439792
	O7190	O	0.924520	0.488804	0.515251
	C7191	C	0.659795	0.571770	0.467688
	C7192	C	0.661660	0.567560	0.483497
	C7193	C	0.645186	0.570710	0.493522
	C7194	C	0.627411	0.577992	0.487517
	C7195	C	0.625358	0.581843	0.471045
	C7196	C	0.641434	0.578595	0.460969
	C7197	C	0.684160	0.561498	0.488269
	C7198	C	0.681311	0.569588	0.463276
	N7199	N	0.695600	0.563654	0.476403
	O7200	O	0.686986	0.572656	0.452004
	O7201	O	0.691972	0.556056	0.499811
	C7202	C	0.614960	0.582534	0.504563
	C7203	C	0.641507	0.567460	0.510190
	N7204	N	0.623957	0.575781	0.517680
	O7205	O	0.650171	0.558832	0.515406
	O7206	O	0.600326	0.590562	0.507545
	C7207	C	0.638529	0.587161	0.449583
	C7208	C	0.609277	0.590522	0.462862
	N7209	N	0.619286	0.594491	0.451906
	O7210	O	0.591665	0.594198	0.465084
	O7211	O	0.650435	0.588982	0.441563
	F7212	F	-0.044187	0.448779	0.469867
	C7213	C	-0.019880	0.450298	0.488849
	C7214	C	-0.002108	0.448854	0.481620
	F7215	F	-0.010002	0.445176	0.455077
	C7216	C	0.023893	0.451092	0.501783
	C7217	C	0.031150	0.454123	0.528390
	F7218	F	0.056113	0.456301	0.547947
	C7219	C	0.013120	0.455277	0.535253
	F7220	F	0.021063	0.458885	0.561715
	C7221	C	-0.013086	0.452820	0.514756
	F7222	F	0.097571	0.864097	0.401978
	C7223	C	0.109206	0.871934	0.434059
	C7224	C	0.106947	0.853867	0.425544
	F7225	F	0.091319	0.828080	0.384231
	C7226	C	0.120959	0.862557	0.460060
	C7227	C	0.137899	0.889826	0.503484
	F7228	F	0.153032	0.899034	0.537749
	C7229	C	0.138697	0.907391	0.511235
	F7230	F	0.153837	0.933069	0.552358
	C7231	C	0.123133	0.898216	0.475962
	F7232	F	0.379470	0.542744	0.488488
	C7233	C	0.381143	0.525242	0.460750
	C7234	C	0.404822	0.524305	0.476156
	F7235	F	0.422751	0.538225	0.515444
	C7236	C	0.410614	0.509384	0.451585
	C7237	C	0.388893	0.492255	0.407843
	F7238	F	0.392910	0.476562	0.382560
	C7239	C	0.363334	0.491389	0.390585
	F7240	F	0.342314	0.474138	0.348109
	C7241	C	0.359740	0.508649	0.417487
	F7242	F	0.275212	0.534445	0.312549
	C7243	C	0.291810	0.561188	0.352637
	C7244	C	0.304013	0.578872	0.361813
	F7245	F	0.300739	0.569227	0.331612
	C7246	C	0.320069	0.606691	0.402574
	C7247	C	0.322326	0.615972	0.432832
	F7248	F	0.335563	0.642023	0.470446
	C7249	C	0.311805	0.598666	0.424860
	F7250	F	0.315841	0.608495	0.455630
	C7251	C	0.297428	0.571217	0.385402
	F7252	F	0.836112	0.892112	0.471047
	C7253	C	0.822565	0.865990	0.433153
	C7254	C	0.811987	0.848625	0.425058
	F7255	F	0.816100	0.858416	0.455844
	C7256	C	0.797430	0.821140	0.385421
	C7257	C	0.791848	0.811179	0.352729
	F7258	F	0.775024	0.784409	0.312457
	C7259	C	0.804095	0.828915	0.362013
	F7260	F	0.800777	0.819310	0.331815
	C7261	C	0.820275	0.856750	0.402904
	F7262	F	0.699656	0.766916	0.396017
	C7263	C	0.725919	0.788806	0.441245
	C7264	C	0.722482	0.801341	0.468646
	F7265	F	0.692988	0.790844	0.449428
	C7266	C	0.749178	0.824646	0.516139
	C7267	C	0.779657	0.833175	0.535127
	F7268	F	0.805334	0.853195	0.579462
	C7269	C	0.783358	0.820852	0.507931
	F7270	F	0.812892	0.829927	0.526940
	C7271	C	0.756678	0.799200	0.460965
	F7272	F	0.261112	0.859071	0.561312
	C7273	C	0.252973	0.837473	0.523662
	C7274	C	0.276985	0.839272	0.526994
	F7275	F	0.307896	0.862334	0.567867
	C7276	C	0.269225	0.817328	0.488186
	C7277	C	0.236602	0.793433	0.445783
	F7278	F	0.228452	0.772335	0.407960
	C7279	C	0.212657	0.791346	0.442572
	F7280	F	0.181806	0.768025	0.401973
	C7281	C	0.220436	0.813564	0.481352
	F7282	F	0.652219	0.648326	0.536709
	C7283	C	0.637455	0.639419	0.502824
	C7284	C	0.638388	0.657159	0.510961
	F7285	F	0.653428	0.682743	0.552132
	C7286	C	0.623101	0.648271	0.476043
	C7287	C	0.609207	0.622066	0.434063
	F7288	F	0.597963	0.614551	0.402418
	C7289	C	0.606815	0.603819	0.425156
	F7290	F	0.591299	0.578128	0.383801
	C7291	C	0.620542	0.612221	0.459304
	F7292	F	0.558315	0.541586	0.456077
	C7293	C	0.577658	0.553789	0.493870
	C7294	C	0.563686	0.547389	0.498887
	F7295	F	0.531680	0.526820	0.463490
	C7296	C	0.582527	0.562183	0.540212
	C7297	C	0.616075	0.582646	0.575474
	F7298	F	0.634576	0.597657	0.615837
	C7299	C	0.630333	0.587403	0.568821
	F7300	F	0.662493	0.606350	0.602378
	C7301	C	0.611238	0.572634	0.527406
	C7302	C	0.497232	0.507644	0.513587
	C7303	C	0.525640	0.515821	0.527056
	C7304	C	0.537857	0.531506	0.532790
	C7305	C	0.521686	0.539118	0.525517
	C7306	C	0.491604	0.528870	0.508107
	C7307	C	0.479497	0.513432	0.502528
	C7308	C	0.537377	0.504360	0.531698
	C7309	C	0.490398	0.491369	0.510578
	N7310	N	0.515003	0.489587	0.520878
	O7311	O	0.469223	0.481936	0.502471
	O7312	O	0.560656	0.506350	0.542016
	C7313	C	0.540185	0.555810	0.534461
	C7314	C	0.566468	0.541922	0.544364
	N7315	N	0.566389	0.556215	0.544453
	O7316	O	0.585698	0.538716	0.550938
	O7317	O	0.535080	0.567014	0.533524
	C7318	C	0.445837	0.503436	0.479631
	C7319	C	0.467352	0.530985	0.492253
	N7320	N	0.439569	0.514013	0.473030
	O7321	O	0.469378	0.544107	0.494435
	O7322	O	0.426472	0.488562	0.466881
	C7323	C	0.383760	0.660430	0.457314
	C7324	C	0.361256	0.663910	0.448400
	C7325	C	0.368785	0.684596	0.462123
	C7326	C	0.399530	0.702263	0.487337
	C7327	C	0.422866	0.700359	0.500028
	C7328	C	0.414809	0.678684	0.483197
	C7329	C	0.331270	0.641742	0.421889
	C7330	C	0.369346	0.636573	0.437687
	N7331	N	0.337864	0.626068	0.416807
	O7332	O	0.381297	0.627519	0.439126
	O7333	O	0.306313	0.637362	0.407489
	C7334	C	0.402049	0.721100	0.495383
	C7335	C	0.350706	0.693186	0.455440
	N7336	N	0.371855	0.714189	0.473952
	O7337	O	0.324662	0.685723	0.439629
	O7338	O	0.424572	0.738748	0.515044
	C7339	C	0.442593	0.678917	0.493695
	C7340	C	0.456981	0.717367	0.527238
	N7341	N	0.466494	0.702062	0.518151
	O7342	O	0.473863	0.739856	0.552663
	O7343	O	0.445225	0.663015	0.483183
	C7344	C	0.688660	0.854524	0.577169
	C7345	C	0.697818	0.857050	0.564681
	C7346	C	0.717260	0.850796	0.560915
	C7347	C	0.728039	0.843020	0.571193
	C7348	C	0.720831	0.842435	0.586994
	C7349	C	0.700368	0.847276	0.588592
	C7350	C	0.681078	0.864301	0.553486
	C7351	C	0.665448	0.859701	0.573743
	N7352	N	0.662145	0.865997	0.560038
	O7353	O	0.651165	0.858555	0.579980
	O7354	O	0.682559	0.868107	0.541122
	C7355	C	0.744783	0.834394	0.559313
	C7356	C	0.727123	0.847462	0.542061
	N7357	N	0.743794	0.837588	0.542133
	O7358	O	0.721014	0.850637	0.526909
	O7359	O	0.755470	0.824795	0.560649
	C7360	C	0.693570	0.841278	0.600388
	C7361	C	0.728645	0.834042	0.598871
	N7362	N	0.711004	0.833141	0.605632
	O7363	O	0.745955	0.828706	0.602257
	O7364	O	0.676439	0.842019	0.603961
	C7365	C	0.378168	0.824506	0.509678
	C7366	C	0.363089	0.835328	0.512439
	C7367	C	0.337153	0.826586	0.503483
	C7368	C	0.326634	0.806776	0.490816
	C7369	C	0.340661	0.794892	0.485535
	C7370	C	0.366789	0.804006	0.495677
	C7371	C	0.379998	0.855421	0.525474
	C7372	C	0.404880	0.837156	0.520968
	N7373	N	0.405274	0.855797	0.530770
	O7374	O	0.422877	0.832753	0.521296
	O7375	O	0.374059	0.868397	0.529553
	C7376	C	0.299486	0.801173	0.483942
	C7377	C	0.316498	0.834497	0.505343
	N7378	N	0.293815	0.817859	0.492091
	O7379	O	0.317890	0.851425	0.516203
	O7380	O	0.285023	0.786137	0.474448
	C7381	C	0.378395	0.789240	0.490747
	C7382	C	0.333486	0.773230	0.471790
	N7383	N	0.357342	0.771098	0.476449
	O7384	O	0.312277	0.759484	0.458887
	O7385	O	0.400695	0.791394	0.497241
	C7386	C	0.577569	0.693402	0.493253
	C7387	C	0.589323	0.718096	0.517864
	C7388	C	0.619214	0.734492	0.539728
	C7389	C	0.637273	0.726296	0.537375
	C7390	C	0.626128	0.702056	0.514494
	C7391	C	0.596282	0.685723	0.492389
	C7392	C	0.567259	0.723295	0.520060
	C7393	C	0.546724	0.681079	0.476446
	N7394	N	0.542894	0.700729	0.496043
	O7395	O	0.527964	0.659067	0.451292
	O7396	O	0.569437	0.742751	0.539534
	C7397	C	0.667995	0.747980	0.564277
	C7398	C	0.637642	0.761593	0.568014
	N7399	N	0.666313	0.768311	0.580781
	O7400	O	0.630425	0.775531	0.578322
	O7401	O	0.690037	0.748774	0.570966
	C7402	C	0.590394	0.661522	0.471432
	C7403	C	0.640490	0.688608	0.508206
	N7404	N	0.617537	0.664201	0.481734
	O7405	O	0.665866	0.695917	0.521937
	O7406	O	0.567598	0.642962	0.449970
	F7407	F	0.471054	0.403332	0.434278
	C7408	C	0.494141	0.430655	0.474612
	C7409	C	0.493230	0.445646	0.476700
	F7410	F	0.469662	0.432506	0.438139
	C7411	C	0.516543	0.474317	0.518639
	C7412	C	0.541946	0.487419	0.558075
	F7413	F	0.564987	0.514769	0.598607
	C7414	C	0.543552	0.472327	0.555650
	F7415	F	0.568771	0.485209	0.593468
	C7416	C	0.519071	0.443830	0.514236
	F7417	F	0.357434	0.698035	0.410359
	C7418	C	0.360466	0.719441	0.441284
	C7419	C	0.357649	0.733794	0.442354
	F7420	F	0.350018	0.725026	0.410690
	C7421	C	0.362408	0.757097	0.475992
	C7422	C	0.369894	0.765510	0.508219
	F7423	F	0.376147	0.788441	0.542227
	C7424	C	0.370119	0.749879	0.504708
	F7425	F	0.373493	0.756474	0.532368
	C7426	C	0.366109	0.726977	0.471944
	F7427	F	0.489976	0.695242	0.455066
	C7428	C	0.497861	0.698905	0.481589
	C7429	C	0.480024	0.700258	0.488697
	F7430	F	0.455651	0.698655	0.469605
	C7431	C	0.486818	0.702774	0.514598
	C7432	C	0.513106	0.705347	0.535250
	F7433	F	0.520935	0.708795	0.561496
	C7434	C	0.531196	0.704277	0.528499
	F7435	F	0.556109	0.706385	0.547961
	C7436	C	0.523914	0.701211	0.501844
	F7437	F	0.670555	0.908671	0.629882
	C7438	C	0.647028	0.894004	0.589711
	C7439	C	0.626915	0.899902	0.583910
	F7440	F	0.631777	0.920166	0.618666
	C7441	C	0.601920	0.885072	0.542490
	C7442	C	0.600072	0.866179	0.509073
	F7443	F	0.579361	0.854314	0.471610
	C7444	C	0.619481	0.859596	0.514229
	F7445	F	0.615465	0.840173	0.480110
	C7446	C	0.642993	0.873053	0.554456
	F7447	F	0.714097	0.826302	0.669358
	C7448	C	0.704010	0.814292	0.633944
	C7449	C	0.714410	0.830279	0.639635
	F7450	F	0.734506	0.857546	0.680469
	C7451	C	0.703641	0.818007	0.602713
	C7452	C	0.683941	0.789533	0.560752
	F7453	F	0.674517	0.777463	0.525531
	C7454	C	0.673578	0.773602	0.555034
	F7455	F	0.654260	0.746329	0.514327
	C7456	C	0.682431	0.785698	0.590990
	F7457	F	0.378749	0.831793	0.456190
	C7458	C	0.410524	0.853345	0.495419
	C7459	C	0.429931	0.860793	0.496032
	F7460	F	0.416449	0.846214	0.457363
	C7461	C	0.463269	0.882881	0.535980
	C7462	C	0.476480	0.898111	0.576160
	F7463	F	0.508165	0.919790	0.615338
	C7464	C	0.456994	0.890803	0.575718
	F7465	F	0.469967	0.905950	0.614641
	C7466	C	0.423970	0.867560	0.534847
	C7467	C	0.539115	0.891032	0.529450
	C7468	C	0.547476	0.900089	0.524041
	C7469	C	0.533331	0.909367	0.518553
	C7470	C	0.512062	0.910427	0.520391
	C7471	C	0.503504	0.901077	0.525505
	C7472	C	0.516834	0.891344	0.529896
	C7473	C	0.573094	0.898850	0.527786
	C7474	C	0.557442	0.882073	0.533824
	N7475	N	0.578295	0.888046	0.534119
	O7476	O	0.555739	0.871596	0.536401
	O7477	O	0.587463	0.905538	0.526480
	C7478	C	0.502712	0.923061	0.517233
	C7479	C	0.537972	0.921091	0.513551
	N7480	N	0.519015	0.929101	0.513241
	O7481	O	0.554082	0.923806	0.510402
	O7482	O	0.485968	0.928603	0.519508
	C7483	C	0.502563	0.882383	0.533841
	C7484	C	0.481518	0.899869	0.528553
	N7485	N	0.482237	0.888825	0.534262
	O7486	O	0.465747	0.906568	0.526455
	O7487	O	0.505926	0.871128	0.535043
	C7488	C	0.020928	0.736964	0.623045
	C7489	C	0.008834	0.721526	0.617474
	C7490	C	-0.021063	0.711549	0.600584
	C7491	C	-0.037725	0.718515	0.592082
	C7492	C	-0.025276	0.734526	0.598435
	C7493	C	0.003393	0.743064	0.612583
	C7494	C	0.033095	0.719417	0.633333
	C7495	C	0.054582	0.746947	0.645908
	N7496	N	0.060847	0.736344	0.652463
	O7497	O	0.073948	0.761830	0.658671
	O7498	O	0.031089	0.706322	0.631204
	C7499	C	-0.066226	0.708235	0.580777
	C7500	C	-0.039792	0.694533	0.591027
	N7501	N	-0.066124	0.693971	0.580743
	O7502	O	-0.034723	0.683276	0.591857
	O7503	O	-0.085418	0.711487	0.574292
	C7504	C	0.010000	0.759042	0.615027
	C7505	C	-0.037139	0.745834	0.593498
	N7506	N	-0.014722	0.760675	0.604438
	O7507	O	-0.060530	0.743697	0.582904
	O7508	O	0.031127	0.768410	0.623015
	F7509	F	0.077688	0.712255	0.610066
	C7510	C	0.095623	0.726112	0.649298
	C7511	C	0.119148	0.724996	0.664468
	F7512	F	0.120827	0.707543	0.636708
	C7513	C	0.140588	0.741553	0.707703
	C7514	C	0.137029	0.758808	0.734669
	F7515	F	0.158063	0.776009	0.777108
	C7516	C	0.111492	0.757987	0.717512
	F7517	F	0.107480	0.773642	0.742824
	C7518	C	0.089789	0.740944	0.673843
	F7519	F	0.029033	0.846858	0.690835
	C7520	C	0.005956	0.819536	0.650531
	C7521	C	0.006980	0.804569	0.648483
	F7522	F	0.030470	0.817755	0.687111
	C7523	C	-0.016306	0.775896	0.606578
	C7524	C	-0.041648	0.762748	0.567072
	F7525	F	-0.064716	0.735402	0.526588
	C7526	C	-0.043285	0.777804	0.569421
	F7527	F	-0.068536	0.764890	0.531576
	C7528	C	-0.018915	0.806317	0.610843
	F7529	F	0.968318	0.723210	0.661524
	C7530	C	0.936303	0.702617	0.626000
	C7531	C	0.922218	0.695966	0.630666
	F7532	F	0.941457	0.708117	0.668400
	C7533	C	0.888620	0.677114	0.597029
	C7534	C	0.869649	0.662437	0.555714
	F7535	F	0.837481	0.643437	0.522010
	C7536	C	0.884045	0.667338	0.549312
	F7537	F	0.865668	0.652399	0.509030
	C7538	C	0.917602	0.687871	0.584740
	C7539	C	0.190590	0.725922	0.732914
	C7540	C	0.200736	0.732210	0.725115
	C7541	C	0.218618	0.725594	0.717853
	C7542	C	0.227734	0.714152	0.720991
	C7543	C	0.220570	0.710517	0.733765
	C7544	C	0.201277	0.715622	0.738410
	C7545	C	0.185827	0.742578	0.720342
	C7546	C	0.167228	0.730832	0.730983
	N7547	N	0.164891	0.740348	0.722388
	O7548	O	0.152048	0.727053	0.734287
	O7549	O	0.189883	0.751200	0.715475
	C7550	C	0.241367	0.704885	0.703835
	C7551	C	0.227368	0.725184	0.700504
	N7552	N	0.239413	0.711211	0.690495
	O7553	O	0.224530	0.733809	0.694304
	O7554	O	0.250454	0.692774	0.698573
	C7555	C	0.193013	0.705219	0.743886
	C7556	C	0.227160	0.698555	0.739267
	N7557	N	0.209077	0.694994	0.743787
	O7558	O	0.244675	0.693328	0.740960
	O7559	O	0.176043	0.704788	0.747296
	C7560	C	-0.047892	0.849555	0.600149
	C7561	C	-0.039041	0.859160	0.595707
	C7562	C	-0.016852	0.858768	0.595092
	C7563	C	-0.004049	0.848485	0.598477
	C7564	C	-0.011841	0.839874	0.604942
	C7565	C	-0.033652	0.840364	0.605779
	C7566	C	-0.057599	0.867880	0.590918
	C7567	C	-0.073278	0.851039	0.596861
	N7568	N	-0.078451	0.861887	0.590608
	O7569	O	-0.087536	0.844460	0.598372
	O7570	O	-0.056027	0.878238	0.588118
	C7571	C	0.018270	0.850057	0.596052
	C7572	C	-0.003036	0.867300	0.590342
	N7573	N	0.017364	0.860935	0.590044
	O7574	O	-0.006760	0.878217	0.588510
	O7575	O	0.034387	0.843708	0.598757
	C7576	C	-0.037876	0.829028	0.611494
	C7577	C	-0.002759	0.826951	0.607562
	N7578	N	-0.018916	0.821017	0.611781
	O7579	O	0.013733	0.821177	0.604831
	O7580	O	-0.053724	0.826551	0.615100
	C7581	C	0.839666	0.677672	0.656131
	C7582	C	0.838445	0.682532	0.641391
	C7583	C	0.854888	0.679326	0.631305
	C7584	C	0.871968	0.671367	0.636234
	C7585	C	0.874782	0.668284	0.653945
	C7586	C	0.858410	0.671261	0.663546
	C7587	C	0.815668	0.688303	0.636120
	C7588	C	0.818376	0.680109	0.660933
	N7589	N	0.804147	0.686086	0.647868
	O7590	O	0.812785	0.677160	0.672384
	O7591	O	0.807755	0.693619	0.624371
	C7592	C	0.884745	0.667117	0.619688
	C7593	C	0.858236	0.682212	0.614056
	N7594	N	0.875772	0.673865	0.606559
	O7595	O	0.849393	0.690654	0.608511
	O7596	O	0.899581	0.659275	0.617035
	C7597	C	0.861225	0.662640	0.674833
	C7598	C	0.890326	0.659085	0.661277
	N7599	N	0.880341	0.655187	0.672324
	O7600	O	0.907577	0.655031	0.658448
	O7601	O	0.849364	0.660892	0.682954
	F7602	F	0.183349	0.641243	0.668390
	C7603	C	0.187719	0.651116	0.699382
	C7604	C	0.177024	0.633749	0.691245
	F7605	F	0.163381	0.607599	0.653303
	C7606	C	0.179564	0.643087	0.721718
	C7607	C	0.195901	0.670957	0.762692
	F7608	F	0.199383	0.680631	0.793035
	C7609	C	0.208129	0.688657	0.771906
	F7610	F	0.225083	0.715452	0.812236
	C7611	C	0.202389	0.678631	0.739081
	F7612	F	0.187244	0.670136	0.597992
	C7613	C	0.216787	0.679245	0.617021
	C7614	C	0.220495	0.666906	0.589827
	F7615	F	0.194830	0.646906	0.545502
	C7616	C	0.250970	0.675411	0.608813
	C7617	C	0.277658	0.698672	0.656294
	F7618	F	0.307165	0.709170	0.675545
	C7619	C	0.274198	0.711141	0.683652
	F7620	F	0.300454	0.733037	0.728885
	C7621	C	0.243439	0.700803	0.663936
	F7622	F	0.867951	0.829735	0.506071
	C7623	C	0.872883	0.850035	0.540889
	C7624	C	0.852932	0.856084	0.535260
	F7625	F	0.829286	0.841344	0.495032
	C7626	C	0.857055	0.877087	0.570594
	C7627	C	0.880612	0.890555	0.610828
	F7628	F	0.884731	0.910044	0.645040
	C7629	C	0.899960	0.883910	0.615892
	F7630	F	0.920742	0.895807	0.653386
	C7631	C	0.897977	0.864921	0.582348
	F7632	F	0.082994	0.904021	0.667281
	C7633	C	0.069638	0.889189	0.628475
	C7634	C	0.089060	0.896706	0.629168
	F7635	F	0.120782	0.918406	0.668507
	C7636	C	0.075728	0.882243	0.589592
	C7637	C	0.042785	0.858828	0.548616
	F7638	F	0.029933	0.843506	0.509624
	C7639	C	0.023253	0.851523	0.548131
	F7640	F	-0.008371	0.829684	0.508838
	C7641	C	0.036357	0.866921	0.588387
	F7642	F	0.908787	0.671991	0.740979
	C7643	C	0.893060	0.646191	0.699594
	C7644	C	0.890844	0.628105	0.691029
	F7645	F	0.902372	0.635866	0.723004
	C7646	C	0.876817	0.601802	0.649045
	C7647	C	0.861320	0.592695	0.613856
	F7648	F	0.846149	0.567023	0.572696
	C7649	C	0.862217	0.610324	0.621734
	F7650	F	0.847173	0.601198	0.587571
	C7651	C	0.879171	0.637580	0.665188
	F7652	F	0.817836	0.731616	0.722359
	C7653	C	0.787002	0.708282	0.681672
	C7654	C	0.762984	0.706103	0.678309
	F7655	F	0.771024	0.727166	0.716040
	C7656	C	0.730390	0.682169	0.635835
	C7657	C	0.722742	0.660258	0.597125
	F7658	F	0.691851	0.637184	0.556173
	C7659	C	0.746851	0.662099	0.600651
	F7660	F	0.738816	0.640560	0.563082
	C7661	C	0.779350	0.686072	0.643017
	C7662	C	0.116008	0.589484	0.667304
	C7663	C	0.138785	0.586379	0.677080
	C7664	C	0.131323	0.565732	0.663443
	C7665	C	0.100378	0.547680	0.637413
	C7666	C	0.077406	0.550191	0.626160
	C7667	C	0.085397	0.571808	0.642855
	C7668	C	0.168497	0.608182	0.702723
	C7669	C	0.130425	0.613369	0.686995
	N7670	N	0.161823	0.623760	0.707596
	O7671	O	0.118523	0.622502	0.685751
	O7672	O	0.193336	0.612402	0.716731
	C7673	C	0.097950	0.528940	0.629585
	C7674	C	0.149247	0.556856	0.669450
	N7675	N	0.128135	0.535830	0.650925
	O7676	O	0.175168	0.564174	0.684883
	O7677	O	0.075488	0.511350	0.610076
	C7678	C	0.057311	0.571215	0.631488
	C7679	C	0.043090	0.532876	0.598211
	N7680	N	0.033406	0.548036	0.606968
	O7681	O	0.026205	0.510306	0.572564
	O7682	O	0.054485	0.586924	0.641521
	C7683	C	0.311034	0.645007	0.546991
	C7684	C	0.302622	0.643270	0.560764
	C7685	C	0.283156	0.649499	0.564475
	C7686	C	0.271618	0.656535	0.552980
	C7687	C	0.279518	0.657757	0.538257
	C7688	C	0.299307	0.652231	0.535522
	C7689	C	0.319200	0.635869	0.571720
	C7690	C	0.334453	0.640048	0.550788
	N7691	N	0.337973	0.633994	0.564893
	O7692	O	0.348694	0.641146	0.544474
	O7693	O	0.317733	0.632104	0.584143
	C7694	C	0.255326	0.665592	0.565541
	C7695	C	0.273021	0.652596	0.582922
	N7696	N	0.256343	0.662455	0.582807
	O7697	O	0.278973	0.649293	0.597868
	O7698	O	0.244897	0.675397	0.564535
	C7699	C	0.306352	0.658468	0.524136
	C7700	C	0.271248	0.665676	0.525586
	N7701	N	0.288860	0.666541	0.518771
	O7702	O	0.253704	0.670765	0.521780
	O7703	O	0.323678	0.657921	0.520909
	C7704	C	0.771969	0.907063	0.553702
	C7705	C	0.782828	0.899385	0.564151
	C7706	C	0.802250	0.893106	0.560365
	C7707	C	0.811265	0.895471	0.547621
	C7708	C	0.799113	0.902241	0.535402
	C7709	C	0.779005	0.907450	0.537597
	C7710	C	0.773131	0.902902	0.583276
	C7711	C	0.755395	0.915861	0.565833
	N7712	N	0.756472	0.912781	0.583190
	O7713	O	0.744756	0.925487	0.564524
	O7714	O	0.779337	0.899842	0.598609
	C7715	C	0.834486	0.890304	0.551073
	C7716	C	0.819123	0.886005	0.571812
	N7717	N	0.837955	0.884194	0.565083
	O7718	O	0.817780	0.882357	0.584430
	O7719	O	0.848661	0.891328	0.544638
	C7720	C	0.771161	0.915791	0.525631
	C7721	C	0.806213	0.908522	0.524097
	N7722	N	0.788810	0.916681	0.518873
	O7723	O	0.823506	0.907933	0.520808
	O7724	O	0.753824	0.921096	0.522178
	C7725	C	0.132289	0.945089	0.627279
	C7726	C	0.158800	0.954566	0.638253
	C7727	C	0.173308	0.943127	0.633992
	C7728	C	0.162338	0.922911	0.620407
	C7729	C	0.136580	0.914352	0.611834
	C7730	C	0.121307	0.924984	0.614160
	C7731	C	0.166037	0.976275	0.652107
	C7732	C	0.120836	0.960000	0.632518
	N7733	N	0.142057	0.978286	0.647155
	O7734	O	0.098507	0.957825	0.625954
	O7735	O	0.187382	0.990145	0.665306
	C7736	C	0.183476	0.915445	0.619561
	C7737	C	0.200406	0.948676	0.640758
	N7738	N	0.206206	0.932122	0.632903
	O7739	O	0.214765	0.963600	0.650016
	O7740	O	0.182342	0.898750	0.609236
	C7741	C	0.094592	0.912351	0.602883
	C7742	C	0.119790	0.894402	0.599099
	N7743	N	0.094404	0.893925	0.593556
	O7744	O	0.125902	0.881617	0.595439
	O7745	O	0.076446	0.916619	0.602230
	C7746	C	0.922445	0.556816	0.632014
	C7747	C	0.911112	0.532441	0.608325
	C7748	C	0.881187	0.515987	0.586345
	C7749	C	0.862719	0.523816	0.587695
	C7750	C	0.874312	0.548504	0.611849
	C7751	C	0.904190	0.564901	0.634070
	C7752	C	0.932914	0.527056	0.605555
	C7753	C	0.953398	0.569241	0.649085
	N7754	N	0.957184	0.549562	0.629387
	O7755	O	0.972228	0.591306	0.674412
	O7756	O	0.930649	0.507542	0.585898
	C7757	C	0.832023	0.502116	0.560804
	C7758	C	0.862485	0.488612	0.557266
	N7759	N	0.833689	0.481752	0.544181
	O7760	O	0.869618	0.474594	0.546672
	O7761	O	0.809986	0.501312	0.554149
	C7762	C	0.909752	0.588813	0.654249
	C7763	C	0.859625	0.561644	0.617333
	N7764	N	0.882493	0.586004	0.643649
	O7765	O	0.834101	0.554167	0.603198
	O7766	O	0.932433	0.607282	0.675444
	C7767	C	0.672885	0.692644	0.632946
	C7768	C	0.662423	0.672918	0.620460
	C7769	C	0.636568	0.664279	0.611690
	C7770	C	0.621536	0.675144	0.614521
	C7771	C	0.632850	0.695554	0.628329
	C7772	C	0.658618	0.704303	0.637686
	C7773	C	0.683120	0.665040	0.618716
	C7774	C	0.699974	0.698171	0.639692
	N7775	N	0.705733	0.681585	0.631782
	O7776	O	0.714331	0.713077	0.648922
	O7777	O	0.681799	0.648192	0.608046
	C7778	C	0.595023	0.662711	0.603679
	C7779	C	0.619790	0.644341	0.598983
	N7780	N	0.594652	0.644111	0.593971
	O7781	O	0.625726	0.631373	0.594928
	O7782	O	0.577142	0.667229	0.603574
	C7783	C	0.666160	0.726282	0.652157
	C7784	C	0.621380	0.710445	0.633514
	N7785	N	0.642477	0.728599	0.647862
	O7786	O	0.599141	0.708365	0.627154
	O7787	O	0.687488	0.740105	0.665277
	F7788	F	-0.056080	0.543889	0.577426
	C7789	C	-0.031148	0.546019	0.596909
	C7790	C	-0.013177	0.544798	0.589941
	F7791	F	-0.021069	0.541281	0.563598
	C7792	C	0.013082	0.547325	0.610524
	C7793	C	0.019906	0.549870	0.636468
	F7794	F	0.044265	0.551455	0.655537
	C7795	C	0.002091	0.551240	0.643609
	F7796	F	0.010080	0.555030	0.670306
	C7797	C	-0.023882	0.549047	0.623515
	F7798	F	0.127065	0.993951	0.592947
	C7799	C	0.130096	1.000226	0.620144
	C7800	C	0.130002	0.984342	0.616130
	F7801	F	0.123783	0.961470	0.582069
	C7802	C	0.137200	0.992478	0.647980
	C7803	C	0.141952	1.015739	0.681699
	F7804	F	0.149415	1.024293	0.713100
	C7805	C	0.139267	1.030252	0.683089
	F7806	F	0.142430	1.051689	0.714209
	C7807	C	0.133886	1.022978	0.652787
	F7808	F	0.384627	0.659861	0.644889
	C7809	C	0.380569	0.640382	0.610741
	C7810	C	0.400026	0.633849	0.615983
	F7811	F	0.420715	0.645723	0.653455
	C7812	C	0.398228	0.614978	0.582620
	C7813	C	0.373277	0.600149	0.541195
	F7814	F	0.368463	0.579900	0.506487
	C7815	C	0.353190	0.606061	0.535367
	F7816	F	0.329609	0.591312	0.495124
	C7817	C	0.357144	0.626966	0.570547
	F7818	F	0.265342	0.642065	0.443858
	C7819	C	0.285339	0.669329	0.484630
	C7820	C	0.295801	0.685292	0.490303
	F7821	F	0.285616	0.673251	0.454824
	C7822	C	0.317305	0.713885	0.533201
	C7823	C	0.326171	0.726006	0.569184
	F7824	F	0.345454	0.753279	0.609858
	C7825	C	0.315855	0.710106	0.563534
	F7826	F	0.325306	0.722207	0.598791
	C7827	C	0.296179	0.681634	0.521607
	F7828	F	0.845764	1.003599	0.610528
	C7829	C	0.826324	0.976321	0.569714
	C7830	C	0.815994	0.960341	0.563926
	F7831	F	0.825464	0.972362	0.599130
	C7832	C	0.796246	0.931868	0.521899
	C7833	C	0.785487	0.919655	0.485029
	F7834	F	0.765329	0.892390	0.444126
	C7835	C	0.795991	0.935702	0.490857
	F7836	F	0.785846	0.923748	0.455463
	C7837	C	0.817529	0.964291	0.533835
	F7838	F	0.694889	0.897099	0.545747
	C7839	C	0.720552	0.917132	0.590093
	C7840	C	0.716816	0.929430	0.617248
	F7841	F	0.687251	0.920252	0.598162
	C7842	C	0.743460	0.951012	0.664178
	C7843	C	0.774239	0.961460	0.683964
	F7844	F	0.800473	0.983299	0.729177
	C7845	C	0.777727	0.949041	0.656644
	F7846	F	0.807235	0.959534	0.675906
	C7847	C	0.751055	0.925712	0.609142
	F7848	F	0.271544	0.977639	0.717216
	C7849	C	0.263482	0.956611	0.679457
	C7850	C	0.287495	0.958773	0.682803
	F7851	F	0.318356	0.982052	0.723521
	C7852	C	0.279804	0.936598	0.644093
	C7853	C	0.247278	0.912696	0.601697
	F7854	F	0.239218	0.891142	0.564108
	C7855	C	0.223188	0.910870	0.598208
	F7856	F	0.192294	0.887796	0.557280
	C7857	C	0.230872	0.932723	0.636970
	F7858	F	0.649953	0.774683	0.713947
	C7859	C	0.642477	0.766121	0.682533
	C7860	C	0.639647	0.780561	0.683794
	F7861	F	0.642816	0.802001	0.714920
	C7862	C	0.634147	0.773231	0.653387
	C7863	C	0.630208	0.750404	0.620611
	F7864	F	0.627156	0.744106	0.593382
	C7865	C	0.630232	0.734580	0.616711
	F7866	F	0.623924	0.711667	0.582575
	C7867	C	0.637591	0.742793	0.648699
	F7868	F	0.530101	0.593850	0.510194
	C7869	C	0.543079	0.609080	0.549175
	C7870	C	0.523603	0.601850	0.548813
	F7871	F	0.491944	0.580093	0.509610
	C7872	C	0.536804	0.617218	0.589087
	C7873	C	0.570097	0.639452	0.629109
	F7874	F	0.583551	0.654202	0.667894
	C7875	C	0.589468	0.646884	0.629673
	F7876	F	0.621225	0.668494	0.668909
	C7877	C	0.576040	0.632453	0.590085
	C7878	C	0.466802	0.590654	0.606483
	C7879	C	0.488038	0.589575	0.604586
	C7880	C	0.496289	0.598643	0.598947
	C7881	C	0.483586	0.609029	0.595752
	C7882	C	0.461033	0.609041	0.595680
	C7883	C	0.452643	0.599929	0.601004
	C7884	C	0.497303	0.576841	0.607553
	C7885	C	0.462212	0.578955	0.611539
	N7886	N	0.481090	0.570865	0.611684
	O7887	O	0.446196	0.576316	0.614845
	O7888	O	0.513936	0.571199	0.605071
	C7889	C	0.497491	0.617657	0.591175
	C7890	C	0.518595	0.600203	0.596499
	N7891	N	0.517858	0.611262	0.590814
	O7892	O	0.534575	0.593711	0.598946
	O7893	O	0.493865	0.628676	0.589531
	C7894	C	0.426984	0.601118	0.597186
	C7895	C	0.442822	0.618125	0.591549
	N7896	N	0.421874	0.612033	0.591051
	O7897	O	0.444670	0.628771	0.589281
	O7898	O	0.412516	0.594311	0.598285
	C7899	C	0.380705	0.765330	0.585045
	C7900	C	0.362578	0.773459	0.587288
	C7901	C	0.373933	0.797930	0.610826
	C7902	C	0.403653	0.814179	0.632638
	C7903	C	0.422450	0.806583	0.631937
	C7904	C	0.410896	0.782016	0.607700
	C7905	C	0.331735	0.751629	0.560009
	C7906	C	0.362177	0.738107	0.556416
	N7907	N	0.333400	0.731267	0.543387
	O7908	O	0.369399	0.724166	0.546050
	O7909	O	0.309630	0.750768	0.553174
	C7910	C	0.409381	0.838259	0.653280
	C7911	C	0.359222	0.811048	0.616274
	N7912	N	0.382100	0.835426	0.642637
	O7913	O	0.333680	0.803547	0.602088
	O7914	O	0.432165	0.856845	0.674775
	C7915	C	0.432735	0.776674	0.604977
	C7916	C	0.453246	0.818911	0.648663
	N7917	N	0.457036	0.799236	0.628932
	O7918	O	0.471991	0.840935	0.673839
	O7919	O	0.430473	0.757154	0.585274
	C7920	C	0.690441	0.975886	0.732863
	C7921	C	0.700583	0.982202	0.725095
	C7922	C	0.718526	0.975656	0.717925
	C7923	C	0.727719	0.964265	0.721142
	C7924	C	0.720547	0.960595	0.733874
	C7925	C	0.701185	0.965622	0.738411
	C7926	C	0.685602	0.992516	0.720241
	C7927	C	0.667022	0.980731	0.730851
	N7928	N	0.664646	0.990236	0.722234
	O7929	O	0.651822	0.976907	0.734098
	O7930	O	0.689619	1.001130	0.715350
	C7931	C	0.741446	0.955094	0.704119
	C7932	C	0.727281	0.975282	0.700613
	N7933	N	0.739418	0.961384	0.690708
	O7934	O	0.724382	0.983881	0.694364
	O7935	O	0.750666	0.943083	0.699017
	C7936	C	0.692925	0.955190	0.743847
	C7937	C	0.727198	0.948670	0.739440
	N7938	N	0.709059	0.945028	0.743841
	O7939	O	0.744793	0.943526	0.741258
	O7940	O	0.675899	0.954690	0.747153
	C7941	C	0.372191	0.921661	0.636775
	C7942	C	0.354591	0.929127	0.631081
	C7943	C	0.338252	0.932400	0.641325
	C7944	C	0.339984	0.928033	0.656883
	C7945	C	0.357814	0.920660	0.662681
	C7946	C	0.374479	0.918009	0.653580
	C7947	C	0.358282	0.932406	0.614452
	C7948	C	0.384693	0.917191	0.619822
	N7949	N	0.375757	0.924019	0.606833
	O7950	O	0.399332	0.909167	0.616826
	O7951	O	0.349669	0.941088	0.609332
	C7952	C	0.318519	0.930262	0.661383
	C7953	C	0.316026	0.938753	0.637040
	N7954	N	0.304536	0.936535	0.648812
	O7955	O	0.308441	0.944444	0.625908
	O7956	O	0.312665	0.926993	0.672329
	C7957	C	0.389995	0.908754	0.660790
	C7958	C	0.360971	0.912324	0.674458
	N7959	N	0.380039	0.904830	0.671829
	O7960	O	0.349331	0.910749	0.682916
	O7961	O	0.407222	0.904693	0.657903
	C7962	C	0.577297	0.799898	0.625521
	C7963	C	0.585396	0.821688	0.642640
	C7964	C	0.616204	0.839652	0.667761
	C7965	C	0.638747	0.836215	0.676740
	C7966	C	0.631499	0.815893	0.663840
	C7967	C	0.600678	0.798045	0.638280
	C7968	C	0.557303	0.821081	0.631270
	C7969	C	0.543123	0.782764	0.598067
	N7970	N	0.533446	0.797932	0.606842
	O7971	O	0.526313	0.760280	0.572684
	O7972	O	0.554441	0.836762	0.641242
	C7973	C	0.668575	0.858207	0.702800
	C7974	C	0.630432	0.863307	0.686905
	N7975	N	0.661844	0.873730	0.707554
	O7976	O	0.618408	0.872282	0.685311
	O7977	O	0.693515	0.862571	0.717120
	C7978	C	0.598181	0.779160	0.630127
	C7979	C	0.649465	0.807076	0.669974
	N7980	N	0.628383	0.786082	0.651522
	O7981	O	0.675395	0.814409	0.685433
	O7982	O	0.575676	0.761474	0.610423
	F7983	F	0.434961	0.485085	0.525992
	C7984	C	0.458031	0.512433	0.566573
	C7985	C	0.456536	0.527573	0.569083
	F7986	F	0.431322	0.514752	0.531336
	C7987	C	0.480982	0.556082	0.610582
	C7988	C	0.505828	0.569206	0.650167
	F7989	F	0.528879	0.596535	0.690571
	C7990	C	0.506701	0.554156	0.647961
	F7991	F	0.530102	0.567254	0.686506
	C7992	C	0.483365	0.525484	0.605968
	F7993	F	0.345811	0.816604	0.571884
	C7994	C	0.360902	0.842229	0.613042
	C7995	C	0.361880	0.859930	0.621075
	F7996	F	0.346860	0.850872	0.586987
	C7997	C	0.378848	0.887170	0.664576
	C7998	C	0.392791	0.895723	0.698931
	F7999	F	0.408416	0.921472	0.740301
	C8000	C	0.390506	0.877567	0.690214
	F8001	F	0.402019	0.885250	0.722103
	C8002	C	0.376461	0.851284	0.648181
	F8003	F	0.478987	0.791189	0.563486
	C8004	C	0.486859	0.794687	0.589801
	C8005	C	0.468843	0.795858	0.596692
	F8006	F	0.443916	0.793727	0.577200
	C8007	C	0.476047	0.798815	0.623199
	C8008	C	0.502101	0.801122	0.643453
	F8009	F	0.509960	0.804749	0.669927
	C8010	C	0.519991	0.799843	0.636446
	F8011	F	0.544318	0.801388	0.655465
	C8012	C	0.513133	0.797237	0.610420
	F8013	F	0.657731	1.025876	0.776828
	C8014	C	0.636734	1.008662	0.734382
	C8015	C	0.611109	1.007732	0.717083
	F8016	F	0.607088	1.023411	0.742369
	C8017	C	0.589352	0.990581	0.673321
	C8018	C	0.595137	0.975662	0.648737
	F8019	F	0.577208	0.961757	0.609464
	C8020	C	0.618786	0.974690	0.664096
	F8021	F	0.620514	0.957245	0.636405
	C8022	C	0.640273	0.991354	0.707425
	F8023	F	0.699034	0.930535	0.792780
	C8024	C	0.695816	0.920935	0.762645
	C8025	C	0.707980	0.938642	0.771848
	F8026	F	0.724747	0.965406	0.812073
	C8027	C	0.702407	0.928667	0.739149
	C8028	C	0.687877	0.901186	0.699544
	F8029	F	0.683807	0.891395	0.668783
	C8030	C	0.677248	0.883820	0.691432
	F8031	F	0.663826	0.857727	0.653649
	C8032	C	0.679599	0.893090	0.721740
	F8033	F	0.337282	0.893515	0.522203
	C8034	C	0.369440	0.912510	0.555825
	C8035	C	0.383741	0.917245	0.549187
	F8036	F	0.365272	0.902242	0.508836
	C8037	C	0.417297	0.937697	0.584469
	C8038	C	0.436104	0.952467	0.625768
	F8039	F	0.468109	0.973056	0.661211
	C8040	C	0.422100	0.945989	0.630677
	F8041	F	0.441408	0.958217	0.668493
	C8042	C	0.388510	0.927200	0.597167
	C8043	C	0.508326	0.971038	0.616715
	C8044	C	0.520392	0.986406	0.622165
	C8045	C	0.502644	0.992167	0.611050
	C8046	C	0.474197	0.983950	0.597488
	C8047	C	0.461773	0.968022	0.591275
	C8048	C	0.478421	0.961061	0.599805
	C8049	C	0.554047	0.996398	0.645054
	C8050	C	0.532656	0.969053	0.632820
	N8051	N	0.560387	0.985940	0.651874
	O8052	O	0.530711	0.956073	0.630912
	O8053	O	0.573364	1.011190	0.657647
	C8054	C	0.462385	0.995296	0.592614
	C8055	C	0.509510	1.008456	0.614092
	N8056	N	0.484851	1.010167	0.603636
	O8057	O	0.530750	1.017949	0.622332
	O8058	O	0.438997	0.993167	0.582012
	C8059	C	0.459717	0.944119	0.590369
	C8060	C	0.433382	0.957910	0.580255
	N8061	N	0.433470	0.943665	0.580258
	O8062	O	0.414283	0.961268	0.573948
	O8063	O	0.464730	0.932822	0.591128
	C8064	C	0.047624	0.650297	0.774488
	C8065	C	0.039364	0.641329	0.780064
	C8066	C	0.017168	0.641719	0.780665
	C8067	C	0.003779	0.651403	0.776195
	C8068	C	0.012255	0.660690	0.770958
	C8069	C	0.033746	0.659863	0.769528
	C8070	C	0.057612	0.632283	0.784268
	C8071	C	0.073173	0.648990	0.778091
	N8072	N	0.078373	0.638168	0.784390
	O8073	O	0.087491	0.655638	0.776701
	O8074	O	0.055919	0.621806	0.786848
	C8075	C	-0.018243	0.650144	0.779170
	C8076	C	0.002988	0.632829	0.784754
	N8077	N	-0.017400	0.639205	0.785072
	O8078	O	0.006465	0.621671	0.786138
	O8079	O	-0.034135	0.656722	0.776865
	C8080	C	0.037866	0.671074	0.763594
	C8081	C	0.002768	0.673197	0.767567
	N8082	N	0.018861	0.679038	0.763203
	O8083	O	-0.013918	0.678794	0.769943
	O8084	O	0.053687	0.673508	0.759927
	F8085	F	0.079282	0.604369	0.721718
	C8086	C	0.100084	0.616269	0.759214
	C8087	C	0.119387	0.609581	0.764217
	F8088	F	0.115306	0.590136	0.730033
	C8089	C	0.142889	0.622981	0.804383
	C8090	C	0.146955	0.643923	0.839681
	F8091	F	0.170556	0.658605	0.879856
	C8092	C	0.126959	0.649936	0.834037
	F8093	F	0.131912	0.670246	0.868876
	C8094	C	0.101954	0.635143	0.792659
	F8095	F	0.064715	0.764651	0.848446
	C8096	C	0.041659	0.737302	0.807932
	C8097	C	0.043290	0.722226	0.805534
	F8098	F	0.068441	0.735134	0.843406
	C8099	C	0.018876	0.693719	0.764106
	C8100	C	-0.005951	0.680513	0.724422
	F8101	F	-0.029046	0.653192	0.684107
	C8102	C	-0.006888	0.695495	0.726491
	F8103	F	-0.030390	0.682335	0.687897
	C8104	C	0.016353	0.724171	0.768437
	F8105	F	1.008692	0.670367	0.866348
	C8106	C	0.977001	0.648688	0.827233
	C8107	C	0.957623	0.641399	0.826914
	F8108	F	0.970671	0.656643	0.865932
	C8109	C	0.924624	0.618100	0.786085
	C8110	C	0.911105	0.603731	0.746512
	F8111	F	0.879326	0.582171	0.707342
	C8112	C	0.930396	0.611177	0.747012
	F8113	F	0.916821	0.596526	0.708257
	C8114	C	0.963719	0.633321	0.786928
	C8115	C	0.188440	0.604332	0.826902
	C8116	C	0.197545	0.606805	0.814326
	C8117	C	0.216949	0.600515	0.810499
	C8118	C	0.227737	0.592746	0.820789
	C8119	C	0.220577	0.592208	0.836666
	C8120	C	0.200161	0.597096	0.838345
	C8121	C	0.180840	0.614092	0.803190
	C8122	C	0.165271	0.609556	0.823552
	N8123	N	0.161967	0.615849	0.809843
	O8124	O	0.151016	0.608440	0.829839
	O8125	O	0.182317	0.617892	0.790817
	C8126	C	0.244462	0.584104	0.808879
	C8127	C	0.226764	0.597141	0.791578
	N8128	N	0.243464	0.587293	0.791689
	O8129	O	0.220589	0.600262	0.776338
	O8130	O	0.255148	0.574504	0.810214
	C8131	C	0.193437	0.591170	0.850267
	C8132	C	0.228416	0.583838	0.848580
	N8133	N	0.210842	0.583002	0.855455
	O8134	O	0.245700	0.578474	0.851913
	O8135	O	0.176384	0.591991	0.853979
	C8136	C	-0.020764	0.763104	0.751971
	C8137	C	-0.008275	0.779118	0.758635
	C8138	C	0.021652	0.789112	0.775592
	C8139	C	0.037837	0.781534	0.782946
	C8140	C	0.025844	0.766168	0.777812
	C8141	C	-0.002835	0.757639	0.763652
	C8142	C	-0.032745	0.780858	0.742051
	C8143	C	-0.054331	0.753270	0.729338
	N8144	N	-0.060583	0.763819	0.722681
	O8145	O	-0.073674	0.738488	0.716738
	O8146	O	-0.030806	0.793807	0.743899
	C8147	C	0.066465	0.791949	0.794545
	C8148	C	0.040179	0.805808	0.784559
	N8149	N	0.066399	0.806226	0.794605
	O8150	O	0.035083	0.816999	0.783591
	O8151	O	0.085703	0.788754	0.801162
	C8152	C	-0.009800	0.741212	0.760347
	C8153	C	0.037327	0.754386	0.781838
	N8154	N	0.014822	0.739454	0.770702
	O8155	O	0.060536	0.756285	0.791985
	O8156	O	-0.031065	0.731674	0.752034
	C8157	C	0.827053	0.557252	0.741722
	C8158	C	0.838086	0.577500	0.755391
	C8159	C	0.864096	0.586277	0.764481
	C8160	C	0.878812	0.575112	0.760990
	C8161	C	0.868033	0.555227	0.748362
	C8162	C	0.841546	0.545801	0.737462
	C8163	C	0.817056	0.585070	0.756427
	C8164	C	0.799912	0.551686	0.734877
	N8165	N	0.794220	0.568329	0.742904
	O8166	O	0.785441	0.536686	0.725433
	O8167	O	0.818329	0.601873	0.766990
	C8168	C	0.905804	0.588005	0.772848
	C8169	C	0.880650	0.605991	0.776708
	N8170	N	0.906019	0.606455	0.782221
	O8171	O	0.874413	0.618651	0.780106
	O8172	O	0.924094	0.583874	0.773811
	C8173	C	0.834273	0.524092	0.723606
	C8174	C	0.879339	0.540185	0.742860
	N8175	N	0.858155	0.521974	0.728365
	O8176	O	0.901541	0.542218	0.749146
	O8177	O	0.812958	0.510289	0.710525
	F8178	F	0.174205	0.527314	0.775294
	C8179	C	0.183784	0.539404	0.810599
	C8180	C	0.173369	0.523474	0.804863
	F8181	F	0.153984	0.496195	0.764125
	C8182	C	0.182270	0.535578	0.840848
	C8183	C	0.203837	0.564172	0.883791
	F8184	F	0.214051	0.576191	0.919265
	C8185	C	0.214298	0.580157	0.889502
	F8186	F	0.234468	0.607428	0.930367
	C8187	C	0.203482	0.567877	0.852555
	F8188	F	0.192714	0.540599	0.699011
	C8189	C	0.222218	0.551114	0.718265
	C8190	C	0.225691	0.538638	0.690915
	F8191	F	0.199455	0.516791	0.645701
	C8192	C	0.256464	0.549056	0.710684
	C8193	C	0.283108	0.570629	0.757612
	F8194	F	0.312671	0.579798	0.776692
	C8195	C	0.279371	0.582900	0.784757
	F8196	F	0.305047	0.602970	0.829122
	C8197	C	0.248889	0.574389	0.765748
	F8198	F	0.892693	0.726387	0.632207
	C8199	C	0.888667	0.742041	0.657498
	C8200	C	0.863148	0.741235	0.640335
	F8201	F	0.842070	0.723967	0.597841
	C8202	C	0.859623	0.758540	0.667319
	C8203	C	0.881143	0.775206	0.710652
	F8204	F	0.879470	0.792685	0.738404
	C8205	C	0.904763	0.774195	0.725949
	F8206	F	0.922735	0.788108	0.765238
	C8207	C	0.910483	0.759225	0.701291
	F8208	F	0.134633	0.847726	0.866314
	C8209	C	0.116290	0.832774	0.826026
	C8210	C	0.130719	0.837717	0.819692
	F8211	F	0.162896	0.856681	0.853390
	C8212	C	0.111779	0.823093	0.778429
	C8213	C	0.078174	0.804290	0.744807
	F8214	F	0.058990	0.792165	0.707103
	C8215	C	0.064026	0.797691	0.749481
	F8216	F	0.032005	0.777104	0.713936
	C8217	C	0.082708	0.812336	0.790648
	F8218	F	0.876397	0.538677	0.793333
	C8219	C	0.870026	0.515749	0.759119
	C8220	C	0.869990	0.499865	0.755100
	F8221	F	0.872950	0.506073	0.782204
	C8222	C	0.866068	0.477056	0.722312
	C8223	C	0.860672	0.469813	0.692032
	F8224	F	0.857385	0.448323	0.660773
	C8225	C	0.858083	0.484405	0.693570
	F8226	F	0.850623	0.475889	0.662204
	C8227	C	0.862919	0.507698	0.727386
	F8228	F	0.807953	0.612666	0.818375
	C8229	C	0.777080	0.589572	0.777376
	C8230	C	0.752922	0.587665	0.773752
	F8231	F	0.760878	0.609202	0.811245
	C8232	C	0.720427	0.563707	0.731311
	C8233	C	0.712838	0.541545	0.692701
	F8234	F	0.682006	0.518227	0.651937
	C8235	C	0.736927	0.543746	0.696199
	F8236	F	0.728941	0.522765	0.658498
	C8237	C	0.769504	0.567698	0.738725
	C8238	C	0.118793	0.484086	0.788836
	C8239	C	0.137245	0.476242	0.787450
	C8240	C	0.125860	0.451754	0.763866
	C8241	C	0.095848	0.435229	0.741285
	C8242	C	0.077605	0.443328	0.743365
	C8243	C	0.088922	0.467685	0.766999
	C8244	C	0.167883	0.497882	0.814181
	C8245	C	0.137399	0.511371	0.817648
	N8246	N	0.166159	0.518189	0.830641
	O8247	O	0.130224	0.525350	0.828115
	O8248	O	0.189927	0.498691	0.820856
	C8249	C	0.090238	0.411265	0.720965
	C8250	C	0.140278	0.438353	0.757654
	N8251	N	0.117397	0.413975	0.731290
	O8252	O	0.165643	0.445672	0.771356
	O8253	O	0.067599	0.392832	0.699872
	C8254	C	0.067132	0.473085	0.769783
	C8255	C	0.046632	0.430900	0.726256
	N8256	N	0.042840	0.450575	0.745927
	O8257	O	0.027799	0.408838	0.700937
	O8258	O	0.069424	0.492613	0.789473
	C8259	C	0.309527	0.524057	0.641873
	C8260	C	0.300016	0.518393	0.650773
	C8261	C	0.282057	0.524925	0.657904
	C8262	C	0.272133	0.535663	0.653542
	C8263	C	0.280164	0.540076	0.642139
	C8264	C	0.299525	0.535047	0.637608
	C8265	C	0.314527	0.507634	0.654853
	C8266	C	0.333098	0.519357	0.644171
	N8267	N	0.335397	0.509793	0.652686
	O8268	O	0.348413	0.523283	0.641124
	O8269	O	0.310278	0.498829	0.659384
	C8270	C	0.258584	0.545010	0.670836
	C8271	C	0.272777	0.524875	0.674450
	N8272	N	0.260510	0.538669	0.684151
	O8273	O	0.275440	0.516098	0.680378
	O8274	O	0.249527	0.557142	0.676131
	C8275	C	0.307228	0.544948	0.631201
	C8276	C	0.272953	0.551459	0.635610
	N8277	N	0.290945	0.554974	0.630960
	O8278	O	0.255113	0.556349	0.633365
	O8279	O	0.324017	0.545225	0.627479
	C8280	C	0.772239	0.785706	0.653691
	C8281	C	0.781464	0.774357	0.656991
	C8282	C	0.799369	0.767766	0.649764
	C8283	C	0.809446	0.774003	0.641864
	C8284	C	0.798677	0.784233	0.636248
	C8285	C	0.779348	0.789297	0.640836
	C8286	C	0.772787	0.774832	0.674451
	C8287	C	0.758561	0.794940	0.670784
	N8288	N	0.760664	0.788743	0.684345
	O8289	O	0.749340	0.806943	0.675851
	O8290	O	0.775730	0.766296	0.680808
	C8291	C	0.832840	0.769129	0.643836
	C8292	C	0.814369	0.757478	0.654669
	N8293	N	0.835267	0.759687	0.652561
	O8294	O	0.810404	0.748928	0.659672
	O8295	O	0.847976	0.772879	0.640464
	C8296	C	0.772663	0.801178	0.635189
	C8297	C	0.806883	0.794598	0.630695
	N8298	N	0.790756	0.804766	0.630702
	O8299	O	0.823875	0.795059	0.627328
	O8300	O	0.755066	0.806321	0.633360
	C8301	C	0.125808	0.832207	0.721939
	C8302	C	0.142428	0.829503	0.712761
	C8303	C	0.160694	0.822584	0.719321
	C8304	C	0.161899	0.817681	0.733999
	C8305	C	0.145964	0.821375	0.744910
	C8306	C	0.128653	0.829119	0.739652
	C8307	C	0.139084	0.837639	0.700648
	C8308	C	0.110088	0.841251	0.714365
	N8309	N	0.119895	0.845018	0.703061
	O8310	O	0.092828	0.845283	0.717191
	O8311	O	0.150673	0.839150	0.692090
	C8312	C	0.184374	0.811585	0.738712
	C8313	C	0.181717	0.819886	0.714060
	N8314	N	0.195747	0.813670	0.726725
	O8315	O	0.187273	0.822829	0.702582
	O8316	O	0.192170	0.806124	0.750222
	C8317	C	0.115786	0.833255	0.756042
	C8318	C	0.142184	0.818039	0.761430
	N8319	N	0.124665	0.826390	0.768974
	O8320	O	0.150765	0.809335	0.766515
	O8321	O	0.100965	0.841111	0.758737
	C8322	C	0.922732	0.450122	0.749515
	C8323	C	0.914888	0.428692	0.733280
	C8324	C	0.884058	0.410704	0.708094
	C8325	C	0.861251	0.413766	0.698230
	C8326	C	0.868878	0.434683	0.712486
	C8327	C	0.899731	0.452593	0.738178
	C8328	C	0.942718	0.428981	0.743892
	C8329	C	0.956988	0.467348	0.777238
	N8330	N	0.966598	0.452123	0.768325
	O8331	O	0.973875	0.489893	0.802820
	O8332	O	0.945392	0.413115	0.733462
	C8333	C	0.831431	0.391795	0.672208
	C8334	C	0.869555	0.386677	0.688074
	N8335	N	0.838067	0.376152	0.667179
	O8336	O	0.881457	0.377536	0.689290
	O8337	O	0.806548	0.387513	0.658067
	C8338	C	0.902063	0.471201	0.745728
	C8339	C	0.850715	0.443196	0.705685
	N8340	N	0.871810	0.464187	0.724142
	O8341	O	0.824642	0.435668	0.689792
	O8342	O	0.924520	0.488804	0.765251
	C8343	C	0.659795	0.571770	0.717688
	C8344	C	0.661660	0.567560	0.733497
	C8345	C	0.645186	0.570710	0.743522
	C8346	C	0.627411	0.577992	0.737517
	C8347	C	0.625358	0.581843	0.721045
	C8348	C	0.641434	0.578595	0.710969
	C8349	C	0.684160	0.561498	0.738269
	C8350	C	0.681311	0.569588	0.713276
	N8351	N	0.695600	0.563654	0.726403
	O8352	O	0.686986	0.572656	0.702004
	O8353	O	0.691972	0.556056	0.749811
	C8354	C	0.614960	0.582534	0.754563
	C8355	C	0.641507	0.567460	0.760190
	N8356	N	0.623957	0.575781	0.767680
	O8357	O	0.650171	0.558832	0.765406
	O8358	O	0.600326	0.590562	0.757545
	C8359	C	0.638529	0.587161	0.699583
	C8360	C	0.609277	0.590522	0.712862
	N8361	N	0.619286	0.594491	0.701906
	O8362	O	0.591665	0.594198	0.715084
	O8363	O	0.650435	0.588982	0.691563
	F8364	F	-0.044187	0.448779	0.719867
	C8365	C	-0.019880	0.450298	0.738849
	C8366	C	-0.002108	0.448854	0.731620
	F8367	F	-0.010002	0.445176	0.705077
	C8368	C	0.023893	0.451092	0.751783
	C8369	C	0.031150	0.454123	0.778390
	F8370	F	0.056113	0.456301	0.797947
	C8371	C	0.013120	0.455277	0.785253
	F8372	F	0.021063	0.458885	0.811715
	C8373	C	-0.013086	0.452820	0.764756
	F8374	F	0.097571	0.864097	0.651978
	C8375	C	0.109206	0.871934	0.684059
	C8376	C	0.106947	0.853867	0.675544
	F8377	F	0.091319	0.828080	0.634231
	C8378	C	0.120959	0.862557	0.710060
	C8379	C	0.137899	0.889826	0.753484
	F8380	F	0.153032	0.899034	0.787749
	C8381	C	0.138697	0.907391	0.761235
	F8382	F	0.153837	0.933069	0.802358
	C8383	C	0.123133	0.898216	0.725962
	F8384	F	0.379470	0.542744	0.738488
	C8385	C	0.381143	0.525242	0.710750
	C8386	C	0.404822	0.524305	0.726156
	F8387	F	0.422751	0.538225	0.765444
	C8388	C	0.410614	0.509384	0.701585
	C8389	C	0.388893	0.492255	0.657843
	F8390	F	0.392910	0.476562	0.632560
	C8391	C	0.363334	0.491389	0.640585
	F8392	F	0.342314	0.474138	0.598109
	C8393	C	0.359740	0.508649	0.667487
	F8394	F	0.275212	0.534445	0.562549
	C8395	C	0.291810	0.561188	0.602637
	C8396	C	0.304013	0.578872	0.611813
	F8397	F	0.300739	0.569227	0.581612
	C8398	C	0.320069	0.606691	0.652574
	C8399	C	0.322326	0.615972	0.682832
	F8400	F	0.335563	0.642023	0.720446
	C8401	C	0.311805	0.598666	0.674860
	F8402	F	0.315841	0.608495	0.705630
	C8403	C	0.297428	0.571217	0.635402
	F8404	F	0.836112	0.892112	0.721047
	C8405	C	0.822565	0.865990	0.683153
	C8406	C	0.811987	0.848625	0.675058
	F8407	F	0.816100	0.858416	0.705844
	C8408	C	0.797430	0.821140	0.635421
	C8409	C	0.791848	0.811179	0.602729
	F8410	F	0.775024	0.784409	0.562457
	C8411	C	0.804095	0.828915	0.612013
	F8412	F	0.800777	0.819310	0.581815
	C8413	C	0.820275	0.856750	0.652904
	F8414	F	0.699656	0.766916	0.646017
	C8415	C	0.725919	0.788806	0.691245
	C8416	C	0.722482	0.801341	0.718646
	F8417	F	0.692988	0.790844	0.699428
	C8418	C	0.749178	0.824646	0.766139
	C8419	C	0.779657	0.833175	0.785127
	F8420	F	0.805334	0.853195	0.829462
	C8421	C	0.783358	0.820852	0.757931
	F8422	F	0.812892	0.829927	0.776940
	C8423	C	0.756678	0.799200	0.710965
	F8424	F	0.261112	0.859071	0.811312
	C8425	C	0.252973	0.837473	0.773662
	C8426	C	0.276985	0.839272	0.776994
	F8427	F	0.307896	0.862334	0.817867
	C8428	C	0.269225	0.817328	0.738186
	C8429	C	0.236602	0.793433	0.695783
	F8430	F	0.228452	0.772335	0.657960
	C8431	C	0.212657	0.791346	0.692572
	F8432	F	0.181806	0.768025	0.651973
	C8433	C	0.220436	0.813564	0.731352
	F8434	F	0.652219	0.648326	0.786709
	C8435	C	0.637455	0.639419	0.752824
	C8436	C	0.638388	0.657159	0.760961
	F8437	F	0.653428	0.682743	0.802132
	C8438	C	0.623101	0.648271	0.726043
	C8439	C	0.609207	0.622066	0.684063
	F8440	F	0.597963	0.614551	0.652418
	C8441	C	0.606815	0.603819	0.675156
	F8442	F	0.591299	0.578128	0.633801
	C8443	C	0.620542	0.612221	0.709304
	F8444	F	0.558315	0.541586	0.706077
	C8445	C	0.577658	0.553789	0.743870
	C8446	C	0.563686	0.547389	0.748887
	F8447	F	0.531680	0.526820	0.713490
	C8448	C	0.582527	0.562183	0.790212
	C8449	C	0.616075	0.582646	0.825474
	F8450	F	0.634576	0.597657	0.865837
	C8451	C	0.630333	0.587403	0.818821
	F8452	F	0.662493	0.606350	0.852378
	C8453	C	0.611238	0.572634	0.777406
	C8454	C	0.497232	0.507644	0.763587
	C8455	C	0.525640	0.515821	0.777056
	C8456	C	0.537857	0.531506	0.782790
	C8457	C	0.521686	0.539118	0.775517
	C8458	C	0.491604	0.528870	0.758107
	C8459	C	0.479497	0.513432	0.752528
	C8460	C	0.537377	0.504360	0.781698
	C8461	C	0.490398	0.491369	0.760578
	N8462	N	0.515003	0.489587	0.770878
	O8463	O	0.469223	0.481936	0.752471
	O8464	O	0.560656	0.506350	0.792016
	C8465	C	0.540185	0.555810	0.784461
	C8466	C	0.566468	0.541922	0.794364
	N8467	N	0.566389	0.556215	0.794453
	O8468	O	0.585698	0.538716	0.800938
	O8469	O	0.535080	0.567014	0.783524
	C8470	C	0.445837	0.503436	0.729631
	C8471	C	0.467352	0.530985	0.742253
	N8472	N	0.439569	0.514013	0.723030
	O8473	O	0.469378	0.544107	0.744435
	O8474	O	0.426472	0.488562	0.716881
	C8475	C	0.383760	0.660430	0.707314
	C8476	C	0.361256	0.663910	0.698400
	C8477	C	0.368785	0.684596	0.712123
	C8478	C	0.399530	0.702263	0.737337
	C8479	C	0.422866	0.700359	0.750028
	C8480	C	0.414809	0.678684	0.733197
	C8481	C	0.331270	0.641742	0.671889
	C8482	C	0.369346	0.636573	0.687687
	N8483	N	0.337864	0.626068	0.666807
	O8484	O	0.381297	0.627519	0.689126
	O8485	O	0.306313	0.637362	0.657489
	C8486	C	0.402049	0.721100	0.745383
	C8487	C	0.350706	0.693186	0.705440
	N8488	N	0.371855	0.714189	0.723952
	O8489	O	0.324662	0.685723	0.689629
	O8490	O	0.424572	0.738748	0.765044
	C8491	C	0.442593	0.678917	0.743695
	C8492	C	0.456981	0.717367	0.777238
	N8493	N	0.466494	0.702062	0.768151
	O8494	O	0.473863	0.739856	0.802663
	O8495	O	0.445225	0.663015	0.733183
	C8496	C	0.688660	0.854524	0.827169
	C8497	C	0.697818	0.857050	0.814681
	C8498	C	0.717260	0.850796	0.810915
	C8499	C	0.728039	0.843020	0.821193
	C8500	C	0.720831	0.842435	0.836994
	C8501	C	0.700368	0.847276	0.838592
	C8502	C	0.681078	0.864301	0.803486
	C8503	C	0.665448	0.859701	0.823743
	N8504	N	0.662145	0.865997	0.810038
	O8505	O	0.651165	0.858555	0.829980
	O8506	O	0.682559	0.868107	0.791122
	C8507	C	0.744783	0.834394	0.809313
	C8508	C	0.727123	0.847462	0.792061
	N8509	N	0.743794	0.837588	0.792133
	O8510	O	0.721014	0.850637	0.776909
	O8511	O	0.755470	0.824795	0.810649
	C8512	C	0.693570	0.841278	0.850388
	C8513	C	0.728645	0.834042	0.848871
	N8514	N	0.711004	0.833141	0.855632
	O8515	O	0.745955	0.828706	0.852257
	O8516	O	0.676439	0.842019	0.853961
	C8517	C	0.378168	0.824506	0.759678
	C8518	C	0.363089	0.835328	0.762439
	C8519	C	0.337153	0.826586	0.753483
	C8520	C	0.326634	0.806776	0.740816
	C8521	C	0.340661	0.794892	0.735535
	C8522	C	0.366789	0.804006	0.745677
	C8523	C	0.379998	0.855421	0.775474
	C8524	C	0.404880	0.837156	0.770968
	N8525	N	0.405274	0.855797	0.780770
	O8526	O	0.422877	0.832753	0.771296
	O8527	O	0.374059	0.868397	0.779553
	C8528	C	0.299486	0.801173	0.733942
	C8529	C	0.316498	0.834497	0.755343
	N8530	N	0.293815	0.817859	0.742091
	O8531	O	0.317890	0.851425	0.766203
	O8532	O	0.285023	0.786137	0.724448
	C8533	C	0.378395	0.789240	0.740747
	C8534	C	0.333486	0.773230	0.721790
	N8535	N	0.357342	0.771098	0.726449
	O8536	O	0.312277	0.759484	0.708887
	O8537	O	0.400695	0.791394	0.747241
	C8538	C	0.577569	0.693402	0.743253
	C8539	C	0.589323	0.718096	0.767864
	C8540	C	0.619214	0.734492	0.789728
	C8541	C	0.637273	0.726296	0.787375
	C8542	C	0.626128	0.702056	0.764494
	C8543	C	0.596282	0.685723	0.742389
	C8544	C	0.567259	0.723295	0.770060
	C8545	C	0.546724	0.681079	0.726446
	N8546	N	0.542894	0.700729	0.746043
	O8547	O	0.527964	0.659067	0.701292
	O8548	O	0.569437	0.742751	0.789534
	C8549	C	0.667995	0.747980	0.814277
	C8550	C	0.637642	0.761593	0.818014
	N8551	N	0.666313	0.768311	0.830781
	O8552	O	0.630425	0.775531	0.828322
	O8553	O	0.690037	0.748774	0.820966
	C8554	C	0.590394	0.661522	0.721432
	C8555	C	0.640490	0.688608	0.758206
	N8556	N	0.617537	0.664201	0.731734
	O8557	O	0.665866	0.695917	0.771937
	O8558	O	0.567598	0.642962	0.699970
	F8559	F	0.471054	0.403332	0.684278
	C8560	C	0.494141	0.430655	0.724612
	C8561	C	0.493230	0.445646	0.726700
	F8562	F	0.469662	0.432506	0.688139
	C8563	C	0.516543	0.474317	0.768639
	C8564	C	0.541946	0.487419	0.808075
	F8565	F	0.564987	0.514769	0.848607
	C8566	C	0.543552	0.472327	0.805650
	F8567	F	0.568771	0.485209	0.843468
	C8568	C	0.519071	0.443830	0.764236
	F8569	F	0.357434	0.698035	0.660359
	C8570	C	0.360466	0.719441	0.691284
	C8571	C	0.357649	0.733794	0.692354
	F8572	F	0.350018	0.725026	0.660690
	C8573	C	0.362408	0.757097	0.725992
	C8574	C	0.369894	0.765510	0.758219
	F8575	F	0.376147	0.788441	0.792227
	C8576	C	0.370119	0.749879	0.754708
	F8577	F	0.373493	0.756474	0.782368
	C8578	C	0.366109	0.726977	0.721944
	F8579	F	0.489976	0.695242	0.705066
	C8580	C	0.497861	0.698905	0.731589
	C8581	C	0.480024	0.700258	0.738697
	F8582	F	0.455651	0.698655	0.719605
	C8583	C	0.486818	0.702774	0.764598
	C8584	C	0.513106	0.705347	0.785250
	F8585	F	0.520935	0.708795	0.811496
	C8586	C	0.531196	0.704277	0.778499
	F8587	F	0.556109	0.706385	0.797961
	C8588	C	0.523914	0.701211	0.751844
	F8589	F	0.670555	0.908671	0.879882
	C8590	C	0.647028	0.894004	0.839711
	C8591	C	0.626915	0.899902	0.833910
	F8592	F	0.631777	0.920166	0.868666
	C8593	C	0.601920	0.885072	0.792490
	C8594	C	0.600072	0.866179	0.759073
	F8595	F	0.579361	0.854314	0.721610
	C8596	C	0.619481	0.859596	0.764229
	F8597	F	0.615465	0.840173	0.730110
	C8598	C	0.642993	0.873053	0.804456
	F8599	F	0.714097	0.826302	0.919358
	C8600	C	0.704010	0.814292	0.883944
	C8601	C	0.714410	0.830279	0.889635
	F8602	F	0.734506	0.857546	0.930469
	C8603	C	0.703641	0.818007	0.852713
	C8604	C	0.683941	0.789533	0.810752
	F8605	F	0.674517	0.777463	0.775531
	C8606	C	0.673578	0.773602	0.805034
	F8607	F	0.654260	0.746329	0.764327
	C8608	C	0.682431	0.785698	0.840990
	F8609	F	0.378749	0.831793	0.706190
	C8610	C	0.410524	0.853345	0.745419
	C8611	C	0.429931	0.860793	0.746032
	F8612	F	0.416449	0.846214	0.707363
	C8613	C	0.463269	0.882881	0.785980
	C8614	C	0.476480	0.898111	0.826160
	F8615	F	0.508165	0.919790	0.865338
	C8616	C	0.456994	0.890803	0.825718
	F8617	F	0.469967	0.905950	0.864641
	C8618	C	0.423970	0.867560	0.784847
	C8619	C	0.539115	0.891032	0.779450
	C8620	C	0.547476	0.900089	0.774041
	C8621	C	0.533331	0.909367	0.768553
	C8622	C	0.512062	0.910427	0.770391
	C8623	C	0.503504	0.901077	0.775505
	C8624	C	0.516834	0.891344	0.779896
	C8625	C	0.573094	0.898850	0.777786
	C8626	C	0.557442	0.882073	0.783824
	N8627	N	0.578295	0.888046	0.784119
	O8628	O	0.555739	0.871596	0.786401
	O8629	O	0.587463	0.905538	0.776480
	C8630	C	0.502712	0.923061	0.767233
	C8631	C	0.537972	0.921091	0.763551
	N8632	N	0.519015	0.929101	0.763241
	O8633	O	0.554082	0.923806	0.760402
	O8634	O	0.485968	0.928603	0.769508
	C8635	C	0.502563	0.882383	0.783841
	C8636	C	0.481518	0.899869	0.778553
	N8637	N	0.482237	0.888825	0.784262
	O8638	O	0.465747	0.906568	0.776455
	O8639	O	0.505926	0.871128	0.785043
	C8640	C	0.020928	0.736964	0.873045
	C8641	C	0.008834	0.721526	0.867474
	C8642	C	-0.021063	0.711549	0.850584
	C8643	C	-0.037725	0.718515	0.842082
	C8644	C	-0.025276	0.734526	0.848435
	C8645	C	0.003393	0.743064	0.862583
	C8646	C	0.033095	0.719417	0.883333
	C8647	C	0.054582	0.746947	0.895908
	N8648	N	0.060847	0.736344	0.902463
	O8649	O	0.073948	0.761830	0.908671
	O8650	O	0.031089	0.706322	0.881204
	C8651	C	-0.066226	0.708235	0.830777
	C8652	C	-0.039792	0.694533	0.841027
	N8653	N	-0.066124	0.693971	0.830743
	O8654	O	-0.034723	0.683276	0.841857
	O8655	O	-0.085418	0.711487	0.824292
	C8656	C	0.010000	0.759042	0.865027
	C8657	C	-0.037139	0.745834	0.843498
	N8658	N	-0.014722	0.760675	0.854438
	O8659	O	-0.060530	0.743697	0.832904
	O8660	O	0.031127	0.768410	0.873015
	F8661	F	0.077688	0.712255	0.860066
	C8662	C	0.095623	0.726112	0.899298
	C8663	C	0.119148	0.724996	0.914468
	F8664	F	0.120827	0.707543	0.886708
	C8665	C	0.140588	0.741553	0.957703
	C8666	C	0.137029	0.758808	0.984669
	F8667	F	0.158063	0.776009	1.027108
	C8668	C	0.111492	0.757987	0.967512
	F8669	F	0.107480	0.773642	0.992824
	C8670	C	0.089789	0.740944	0.923843
	F8671	F	0.029033	0.846858	0.940835
	C8672	C	0.005956	0.819536	0.900531
	C8673	C	0.006980	0.804569	0.898483
	F8674	F	0.030470	0.817755	0.937111
	C8675	C	-0.016306	0.775896	0.856578
	C8676	C	-0.041648	0.762748	0.817072
	F8677	F	-0.064716	0.735402	0.776588
	C8678	C	-0.043285	0.777804	0.819421
	F8679	F	-0.068536	0.764890	0.781576
	C8680	C	-0.018915	0.806317	0.860843
	F8681	F	0.968318	0.723210	0.911524
	C8682	C	0.936303	0.702617	0.876000
	C8683	C	0.922218	0.695966	0.880666
	F8684	F	0.941457	0.708117	0.918400
	C8685	C	0.888620	0.677114	0.847029
	C8686	C	0.869649	0.662437	0.805714
	F8687	F	0.837481	0.643437	0.772010
	C8688	C	0.884045	0.667338	0.799312
	F8689	F	0.865668	0.652399	0.759030
	C8690	C	0.917602	0.687871	0.834740
	C8691	C	0.190590	0.725922	0.982914
	C8692	C	0.200736	0.732210	0.975115
	C8693	C	0.218618	0.725594	0.967853
	C8694	C	0.227734	0.714152	0.970991
	C8695	C	0.220570	0.710517	0.983765
	C8696	C	0.201277	0.715622	0.988410
	C8697	C	0.185827	0.742578	0.970342
	C8698	C	0.167228	0.730832	0.980983
	N8699	N	0.164891	0.740348	0.972388
	O8700	O	0.152048	0.727053	0.984287
	O8701	O	0.189883	0.751200	0.965475
	C8702	C	0.241367	0.704885	0.953835
	C8703	C	0.227368	0.725184	0.950504
	N8704	N	0.239413	0.711211	0.940495
	O8705	O	0.224530	0.733809	0.944304
	O8706	O	0.250454	0.692774	0.948573
	C8707	C	0.193013	0.705219	0.993886
	C8708	C	0.227160	0.698555	0.989267
	N8709	N	0.209077	0.694994	0.993787
	O8710	O	0.244675	0.693328	0.990960
	O8711	O	0.176043	0.704788	0.997296
	C8712	C	-0.047892	0.849555	0.850149
	C8713	C	-0.039041	0.859160	0.845707
	C8714	C	-0.016852	0.858768	0.845092
	C8715	C	-0.004049	0.848485	0.848477
	C8716	C	-0.011841	0.839874	0.854942
	C8717	C	-0.033652	0.840364	0.855779
	C8718	C	-0.057599	0.867880	0.840918
	C8719	C	-0.073278	0.851039	0.846861
	N8720	N	-0.078451	0.861887	0.840608
	O8721	O	-0.087536	0.844460	0.848372
	O8722	O	-0.056027	0.878238	0.838118
	C8723	C	0.018270	0.850057	0.846052
	C8724	C	-0.003036	0.867300	0.840342
	N8725	N	0.017364	0.860935	0.840044
	O8726	O	-0.006760	0.878217	0.838510
	O8727	O	0.034387	0.843708	0.848757
	C8728	C	-0.037876	0.829028	0.861494
	C8729	C	-0.002759	0.826951	0.857562
	N8730	N	-0.018916	0.821017	0.861781
	O8731	O	0.013733	0.821177	0.854831
	O8732	O	-0.053724	0.826551	0.865100
	C8733	C	0.839666	0.677672	0.906131
	C8734	C	0.838445	0.682532	0.891391
	C8735	C	0.854888	0.679326	0.881305
	C8736	C	0.871968	0.671367	0.886234
	C8737	C	0.874782	0.668284	0.903945
	C8738	C	0.858410	0.671261	0.913546
	C8739	C	0.815668	0.688303	0.886120
	C8740	C	0.818376	0.680109	0.910933
	N8741	N	0.804147	0.686086	0.897868
	O8742	O	0.812785	0.677160	0.922384
	O8743	O	0.807755	0.693619	0.874371
	C8744	C	0.884745	0.667117	0.869688
	C8745	C	0.858236	0.682212	0.864056
	N8746	N	0.875772	0.673865	0.856559
	O8747	O	0.849393	0.690654	0.858511
	O8748	O	0.899581	0.659275	0.867035
	C8749	C	0.861225	0.662640	0.924833
	C8750	C	0.890326	0.659085	0.911277
	N8751	N	0.880341	0.655187	0.922324
	O8752	O	0.907577	0.655031	0.908448
	O8753	O	0.849364	0.660892	0.932954
	F8754	F	0.183349	0.641243	0.918390
	C8755	C	0.187719	0.651116	0.949382
	C8756	C	0.177024	0.633749	0.941245
	F8757	F	0.163381	0.607599	0.903303
	C8758	C	0.179564	0.643087	0.971718
	C8759	C	0.195901	0.670957	1.012692
	F8760	F	0.199383	0.680631	1.043035
	C8761	C	0.208129	0.688657	1.021906
	F8762	F	0.225083	0.715452	1.062236
	C8763	C	0.202389	0.678631	0.989081
	F8764	F	0.187244	0.670136	0.847992
	C8765	C	0.216787	0.679245	0.867021
	C8766	C	0.220495	0.666906	0.839827
	F8767	F	0.194830	0.646906	0.795502
	C8768	C	0.250970	0.675411	0.858813
	C8769	C	0.277658	0.698672	0.906294
	F8770	F	0.307165	0.709170	0.925545
	C8771	C	0.274198	0.711141	0.933652
	F8772	F	0.300454	0.733037	0.978885
	C8773	C	0.243439	0.700803	0.913936
	F8774	F	0.867951	0.829735	0.756071
	C8775	C	0.872883	0.850035	0.790889
	C8776	C	0.852932	0.856084	0.785260
	F8777	F	0.829286	0.841344	0.745032
	C8778	C	0.857055	0.877087	0.820594
	C8779	C	0.880612	0.890555	0.860828
	F8780	F	0.884731	0.910044	0.895040
	C8781	C	0.899960	0.883910	0.865892
	F8782	F	0.920742	0.895807	0.903386
	C8783	C	0.897977	0.864921	0.832348
	F8784	F	0.082994	0.904021	0.917281
	C8785	C	0.069638	0.889189	0.878475
	C8786	C	0.089060	0.896706	0.879168
	F8787	F	0.120782	0.918406	0.918507
	C8788	C	0.075728	0.882243	0.839592
	C8789	C	0.042785	0.858828	0.798616
	F8790	F	0.029933	0.843506	0.759624
	C8791	C	0.023253	0.851523	0.798131
	F8792	F	-0.008371	0.829684	0.758838
	C8793	C	0.036357	0.866921	0.838387
	F8794	F	0.908787	0.671991	0.990979
	C8795	C	0.893060	0.646191	0.949594
	C8796	C	0.890844	0.628105	0.941029
	F8797	F	0.902372	0.635866	0.973004
	C8798	C	0.876817	0.601802	0.899045
	C8799	C	0.861320	0.592695	0.863856
	F8800	F	0.846149	0.567023	0.822696
	C8801	C	0.862217	0.610324	0.871734
	F8802	F	0.847173	0.601198	0.837571
	C8803	C	0.879171	0.637580	0.915188
	F8804	F	0.817836	0.731616	0.972359
	C8805	C	0.787002	0.708282	0.931672
	C8806	C	0.762984	0.706103	0.928309
	F8807	F	0.771024	0.727166	0.966040
	C8808	C	0.730390	0.682169	0.885835
	C8809	C	0.722742	0.660258	0.847125
	F8810	F	0.691851	0.637184	0.806173
	C8811	C	0.746851	0.662099	0.850651
	F8812	F	0.738816	0.640560	0.813082
	C8813	C	0.779350	0.686072	0.893017
	C8814	C	0.116008	0.589484	0.917304
	C8815	C	0.138785	0.586379	0.927080
	C8816	C	0.131323	0.565732	0.913443
	C8817	C	0.100378	0.547680	0.887413
	C8818	C	0.077406	0.550191	0.876160
	C8819	C	0.085397	0.571808	0.892855
	C8820	C	0.168497	0.608182	0.952723
	C8821	C	0.130425	0.613369	0.936995
	N8822	N	0.161823	0.623760	0.957596
	O8823	O	0.118523	0.622502	0.935751
	O8824	O	0.193336	0.612402	0.966731
	C8825	C	0.097950	0.528940	0.879585
	C8826	C	0.149247	0.556856	0.919450
	N8827	N	0.128135	0.535830	0.900925
	O8828	O	0.175168	0.564174	0.934883
	O8829	O	0.075488	0.511350	0.860076
	C8830	C	0.057311	0.571215	0.881488
	C8831	C	0.043090	0.532876	0.848211
	N8832	N	0.033406	0.548036	0.856968
	O8833	O	0.026205	0.510306	0.822564
	O8834	O	0.054485	0.586924	0.891521
	C8835	C	0.311034	0.645007	0.796991
	C8836	C	0.302622	0.643270	0.810764
	C8837	C	0.283156	0.649499	0.814475
	C8838	C	0.271618	0.656535	0.802980
	C8839	C	0.279518	0.657757	0.788257
	C8840	C	0.299307	0.652231	0.785522
	C8841	C	0.319200	0.635869	0.821720
	C8842	C	0.334453	0.640048	0.800788
	N8843	N	0.337973	0.633994	0.814893
	O8844	O	0.348694	0.641146	0.794474
	O8845	O	0.317733	0.632104	0.834143
	C8846	C	0.255326	0.665592	0.815541
	C8847	C	0.273021	0.652596	0.832922
	N8848	N	0.256343	0.662455	0.832807
	O8849	O	0.278973	0.649293	0.847868
	O8850	O	0.244897	0.675397	0.814535
	C8851	C	0.306352	0.658468	0.774136
	C8852	C	0.271248	0.665676	0.775586
	N8853	N	0.288860	0.666541	0.768771
	O8854	O	0.253704	0.670765	0.771780
	O8855	O	0.323678	0.657921	0.770909
	C8856	C	0.771969	0.907063	0.803702
	C8857	C	0.782828	0.899385	0.814151
	C8858	C	0.802250	0.893106	0.810365
	C8859	C	0.811265	0.895471	0.797621
	C8860	C	0.799113	0.902241	0.785402
	C8861	C	0.779005	0.907450	0.787597
	C8862	C	0.773131	0.902902	0.833276
	C8863	C	0.755395	0.915861	0.815833
	N8864	N	0.756472	0.912781	0.833190
	O8865	O	0.744756	0.925487	0.814524
	O8866	O	0.779337	0.899842	0.848609
	C8867	C	0.834486	0.890304	0.801073
	C8868	C	0.819123	0.886005	0.821812
	N8869	N	0.837955	0.884194	0.815083
	O8870	O	0.817780	0.882357	0.834430
	O8871	O	0.848661	0.891328	0.794638
	C8872	C	0.771161	0.915791	0.775631
	C8873	C	0.806213	0.908522	0.774097
	N8874	N	0.788810	0.916681	0.768873
	O8875	O	0.823506	0.907933	0.770808
	O8876	O	0.753824	0.921096	0.772178
	C8877	C	0.132289	0.945089	0.877279
	C8878	C	0.158800	0.954566	0.888253
	C8879	C	0.173308	0.943127	0.883992
	C8880	C	0.162338	0.922911	0.870407
	C8881	C	0.136580	0.914352	0.861834
	C8882	C	0.121307	0.924984	0.864160
	C8883	C	0.166037	0.976275	0.902107
	C8884	C	0.120836	0.960000	0.882518
	N8885	N	0.142057	0.978286	0.897155
	O8886	O	0.098507	0.957825	0.875954
	O8887	O	0.187382	0.990145	0.915306
	C8888	C	0.183476	0.915445	0.869561
	C8889	C	0.200406	0.948676	0.890758
	N8890	N	0.206206	0.932122	0.882903
	O8891	O	0.214765	0.963600	0.900016
	O8892	O	0.182342	0.898750	0.859236
	C8893	C	0.094592	0.912351	0.852883
	C8894	C	0.119790	0.894402	0.849099
	N8895	N	0.094404	0.893925	0.843556
	O8896	O	0.125902	0.881617	0.845439
	O8897	O	0.076446	0.916619	0.852230
	C8898	C	0.922445	0.556816	0.882014
	C8899	C	0.911112	0.532441	0.858325
	C8900	C	0.881187	0.515987	0.836345
	C8901	C	0.862719	0.523816	0.837695
	C8902	C	0.874312	0.548504	0.861849
	C8903	C	0.904190	0.564901	0.884070
	C8904	C	0.932914	0.527056	0.855555
	C8905	C	0.953398	0.569241	0.899085
	N8906	N	0.957184	0.549562	0.879387
	O8907	O	0.972228	0.591306	0.924412
	O8908	O	0.930649	0.507542	0.835898
	C8909	C	0.832023	0.502116	0.810804
	C8910	C	0.862485	0.488612	0.807266
	N8911	N	0.833689	0.481752	0.794181
	O8912	O	0.869618	0.474594	0.796672
	O8913	O	0.809986	0.501312	0.804149
	C8914	C	0.909752	0.588813	0.904249
	C8915	C	0.859625	0.561644	0.867333
	N8916	N	0.882493	0.586004	0.893649
	O8917	O	0.834101	0.554167	0.853198
	O8918	O	0.932433	0.607282	0.925444
	C8919	C	0.672885	0.692644	0.882946
	C8920	C	0.662423	0.672918	0.870460
	C8921	C	0.636568	0.664279	0.861690
	C8922	C	0.621536	0.675144	0.864521
	C8923	C	0.632850	0.695554	0.878329
	C8924	C	0.658618	0.704303	0.887686
	C8925	C	0.683120	0.665040	0.868716
	C8926	C	0.699974	0.698171	0.889692
	N8927	N	0.705733	0.681585	0.881782
	O8928	O	0.714331	0.713077	0.898922
	O8929	O	0.681799	0.648192	0.858046
	C8930	C	0.595023	0.662711	0.853679
	C8931	C	0.619790	0.644341	0.848983
	N8932	N	0.594652	0.644111	0.843971
	O8933	O	0.625726	0.631373	0.844928
	O8934	O	0.577142	0.667229	0.853574
	C8935	C	0.666160	0.726282	0.902157
	C8936	C	0.621380	0.710445	0.883514
	N8937	N	0.642477	0.728599	0.897862
	O8938	O	0.599141	0.708365	0.877154
	O8939	O	0.687488	0.740105	0.915277
	F8940	F	-0.056080	0.543889	0.827426
	C8941	C	-0.031148	0.546019	0.846909
	C8942	C	-0.013177	0.544798	0.839941
	F8943	F	-0.021069	0.541281	0.813598
	C8944	C	0.013082	0.547325	0.860524
	C8945	C	0.019906	0.549870	0.886468
	F8946	F	0.044265	0.551455	0.905537
	C8947	C	0.002091	0.551240	0.893609
	F8948	F	0.010080	0.555030	0.920306
	C8949	C	-0.023882	0.549047	0.873515
	F8950	F	0.127065	0.993951	0.842947
	C8951	C	0.130096	1.000226	0.870144
	C8952	C	0.130002	0.984342	0.866130
	F8953	F	0.123783	0.961470	0.832069
	C8954	C	0.137200	0.992478	0.897980
	C8955	C	0.141952	1.015739	0.931699
	F8956	F	0.149415	1.024293	0.963100
	C8957	C	0.139267	1.030252	0.933089
	F8958	F	0.142430	1.051689	0.964209
	C8959	C	0.133886	1.022978	0.902787
	F8960	F	0.384627	0.659861	0.894889
	C8961	C	0.380569	0.640382	0.860741
	C8962	C	0.400026	0.633849	0.865983
	F8963	F	0.420715	0.645723	0.903455
	C8964	C	0.398228	0.614978	0.832620
	C8965	C	0.373277	0.600149	0.791195
	F8966	F	0.368463	0.579900	0.756487
	C8967	C	0.353190	0.606061	0.785367
	F8968	F	0.329609	0.591312	0.745124
	C8969	C	0.357144	0.626966	0.820547
	F8970	F	0.265342	0.642065	0.693858
	C8971	C	0.285339	0.669329	0.734630
	C8972	C	0.295801	0.685292	0.740303
	F8973	F	0.285616	0.673251	0.704824
	C8974	C	0.317305	0.713885	0.783201
	C8975	C	0.326171	0.726006	0.819184
	F8976	F	0.345454	0.753279	0.859858
	C8977	C	0.315855	0.710106	0.813534
	F8978	F	0.325306	0.722207	0.848791
	C8979	C	0.296179	0.681634	0.771607
	F8980	F	0.845764	1.003599	0.860528
	C8981	C	0.826324	0.976321	0.819714
	C8982	C	0.815994	0.960341	0.813926
	F8983	F	0.825464	0.972362	0.849130
	C8984	C	0.796246	0.931868	0.771899
	C8985	C	0.785487	0.919655	0.735029
	F8986	F	0.765329	0.892390	0.694126
	C8987	C	0.795991	0.935702	0.740857
	F8988	F	0.785846	0.923748	0.705463
	C8989	C	0.817529	0.964291	0.783835
	F8990	F	0.694889	0.897099	0.795747
	C8991	C	0.720552	0.917132	0.840093
	C8992	C	0.716816	0.929430	0.867248
	F8993	F	0.687251	0.920252	0.848162
	C8994	C	0.743460	0.951012	0.914178
	C8995	C	0.774239	0.961460	0.933964
	F8996	F	0.800473	0.983299	0.979177
	C8997	C	0.777727	0.949041	0.906644
	F8998	F	0.807235	0.959534	0.925906
	C8999	C	0.751055	0.925712	0.859142
	F9000	F	0.271544	0.977639	0.967216
	C9001	C	0.263482	0.956611	0.929457
	C9002	C	0.287495	0.958773	0.932803
	F9003	F	0.318356	0.982052	0.973521
	C9004	C	0.279804	0.936598	0.894093
	C9005	C	0.247278	0.912696	0.851697
	F9006	F	0.239218	0.891142	0.814108
	C9007	C	0.223188	0.910870	0.848208
	F9008	F	0.192294	0.887796	0.807280
	C9009	C	0.230872	0.932723	0.886970
	F9010	F	0.649953	0.774683	0.963947
	C9011	C	0.642477	0.766121	0.932533
	C9012	C	0.639647	0.780561	0.933794
	F9013	F	0.642816	0.802001	0.964920
	C9014	C	0.634147	0.773231	0.903387
	C9015	C	0.630208	0.750404	0.870611
	F9016	F	0.627156	0.744106	0.843382
	C9017	C	0.630232	0.734580	0.866711
	F9018	F	0.623924	0.711667	0.832575
	C9019	C	0.637591	0.742793	0.898699
	F9020	F	0.530101	0.593850	0.760194
	C9021	C	0.543079	0.609080	0.799175
	C9022	C	0.523603	0.601850	0.798813
	F9023	F	0.491944	0.580093	0.759610
	C9024	C	0.536804	0.617218	0.839087
	C9025	C	0.570097	0.639452	0.879109
	F9026	F	0.583551	0.654202	0.917894
	C9027	C	0.589468	0.646884	0.879673
	F9028	F	0.621225	0.668494	0.918909
	C9029	C	0.576040	0.632453	0.840085
	C9030	C	0.466802	0.590654	0.856483
	C9031	C	0.488038	0.589575	0.854586
	C9032	C	0.496289	0.598643	0.848947
	C9033	C	0.483586	0.609029	0.845752
	C9034	C	0.461033	0.609041	0.845680
	C9035	C	0.452643	0.599929	0.851004
	C9036	C	0.497303	0.576841	0.857553
	C9037	C	0.462212	0.578955	0.861539
	N9038	N	0.481090	0.570865	0.861684
	O9039	O	0.446196	0.576316	0.864845
	O9040	O	0.513936	0.571199	0.855071
	C9041	C	0.497491	0.617657	0.841175
	C9042	C	0.518595	0.600203	0.846499
	N9043	N	0.517858	0.611262	0.840814
	O9044	O	0.534575	0.593711	0.848946
	O9045	O	0.493865	0.628676	0.839531
	C9046	C	0.426984	0.601118	0.847186
	C9047	C	0.442822	0.618125	0.841549
	N9048	N	0.421874	0.612033	0.841051
	O9049	O	0.444670	0.628771	0.839281
	O9050	O	0.412516	0.594311	0.848285
	C9051	C	0.380705	0.765330	0.835045
	C9052	C	0.362578	0.773459	0.837288
	C9053	C	0.373933	0.797930	0.860826
	C9054	C	0.403653	0.814179	0.882638
	C9055	C	0.422450	0.806583	0.881937
	C9056	C	0.410896	0.782016	0.857700
	C9057	C	0.331735	0.751629	0.810009
	C9058	C	0.362177	0.738107	0.806416
	N9059	N	0.333400	0.731267	0.793387
	O9060	O	0.369399	0.724166	0.796050
	O9061	O	0.309630	0.750768	0.803174
	C9062	C	0.409381	0.838259	0.903280
	C9063	C	0.359222	0.811048	0.866274
	N9064	N	0.382100	0.835426	0.892637
	O9065	O	0.333680	0.803547	0.852088
	O9066	O	0.432165	0.856845	0.924775
	C9067	C	0.432735	0.776674	0.854977
	C9068	C	0.453246	0.818911	0.898663
	N9069	N	0.457036	0.799236	0.878932
	O9070	O	0.471991	0.840935	0.923839
	O9071	O	0.430473	0.757154	0.835274
	C9072	C	0.690441	0.975886	0.982863
	C9073	C	0.700583	0.982202	0.975095
	C9074	C	0.718526	0.975656	0.967925
	C9075	C	0.727719	0.964265	0.971142
	C9076	C	0.720547	0.960595	0.983874
	C9077	C	0.701185	0.965622	0.988411
	C9078	C	0.685602	0.992516	0.970241
	C9079	C	0.667022	0.980731	0.980851
	N9080	N	0.664646	0.990236	0.972234
	O9081	O	0.651822	0.976907	0.984098
	O9082	O	0.689619	1.001130	0.965350
	C9083	C	0.741446	0.955094	0.954119
	C9084	C	0.727281	0.975282	0.950613
	N9085	N	0.739418	0.961384	0.940708
	O9086	O	0.724382	0.983881	0.944364
	O9087	O	0.750666	0.943083	0.949017
	C9088	C	0.692925	0.955190	0.993847
	C9089	C	0.727198	0.948670	0.989440
	N9090	N	0.709059	0.945028	0.993841
	O9091	O	0.744793	0.943526	0.991258
	O9092	O	0.675899	0.954690	0.997153
	C9093	C	0.372191	0.921661	0.886775
	C9094	C	0.354591	0.929127	0.881081
	C9095	C	0.338252	0.932400	0.891325
	C9096	C	0.339984	0.928033	0.906883
	C9097	C	0.357814	0.920660	0.912681
	C9098	C	0.374479	0.918009	0.903580
	C9099	C	0.358282	0.932406	0.864452
	C9100	C	0.384693	0.917191	0.869822
	N9101	N	0.375757	0.924019	0.856833
	O9102	O	0.399332	0.909167	0.866826
	O9103	O	0.349669	0.941088	0.859332
	C9104	C	0.318519	0.930262	0.911383
	C9105	C	0.316026	0.938753	0.887040
	N9106	N	0.304536	0.936535	0.898812
	O9107	O	0.308441	0.944444	0.875908
	O9108	O	0.312665	0.926993	0.922329
	C9109	C	0.389995	0.908754	0.910790
	C9110	C	0.360971	0.912324	0.924458
	N9111	N	0.380039	0.904830	0.921829
	O9112	O	0.349331	0.910749	0.932916
	O9113	O	0.407222	0.904693	0.907903
	C9114	C	0.577297	0.799898	0.875521
	C9115	C	0.585396	0.821688	0.892640
	C9116	C	0.616204	0.839652	0.917761
	C9117	C	0.638747	0.836215	0.926740
	C9118	C	0.631499	0.815893	0.913840
	C9119	C	0.600678	0.798045	0.888280
	C9120	C	0.557303	0.821081	0.881270
	C9121	C	0.543123	0.782764	0.848067
	N9122	N	0.533446	0.797932	0.856842
	O9123	O	0.526313	0.760280	0.822684
	O9124	O	0.554441	0.836762	0.891242
	C9125	C	0.668575	0.858207	0.952800
	C9126	C	0.630432	0.863307	0.936905
	N9127	N	0.661844	0.873730	0.957554
	O9128	O	0.618408	0.872282	0.935311
	O9129	O	0.693515	0.862571	0.967120
	C9130	C	0.598181	0.779160	0.880127
	C9131	C	0.649465	0.807076	0.919974
	N9132	N	0.628383	0.786082	0.901522
	O9133	O	0.675395	0.814409	0.935433
	O9134	O	0.575676	0.761474	0.860423
	F9135	F	0.434961	0.485085	0.775992
	C9136	C	0.458031	0.512433	0.816573
	C9137	C	0.456536	0.527573	0.819083
	F9138	F	0.431322	0.514752	0.781336
	C9139	C	0.480982	0.556082	0.860582
	C9140	C	0.505828	0.569206	0.900167
	F9141	F	0.528879	0.596535	0.940571
	C9142	C	0.506701	0.554156	0.897961
	F9143	F	0.530102	0.567254	0.936506
	C9144	C	0.483365	0.525484	0.855968
	F9145	F	0.345811	0.816604	0.821884
	C9146	C	0.360902	0.842229	0.863042
	C9147	C	0.361880	0.859930	0.871075
	F9148	F	0.346860	0.850872	0.836987
	C9149	C	0.378848	0.887170	0.914576
	C9150	C	0.392791	0.895723	0.948931
	F9151	F	0.408416	0.921472	0.990301
	C9152	C	0.390506	0.877567	0.940214
	F9153	F	0.402019	0.885250	0.972103
	C9154	C	0.376461	0.851284	0.898181
	F9155	F	0.478987	0.791189	0.813486
	C9156	C	0.486859	0.794687	0.839801
	C9157	C	0.468843	0.795858	0.846692
	F9158	F	0.443916	0.793727	0.827200
	C9159	C	0.476047	0.798815	0.873199
	C9160	C	0.502101	0.801122	0.893453
	F9161	F	0.509960	0.804749	0.919927
	C9162	C	0.519991	0.799843	0.886446
	F9163	F	0.544318	0.801388	0.905465
	C9164	C	0.513133	0.797237	0.860420
	F9165	F	0.657731	1.025876	1.026828
	C9166	C	0.636734	1.008662	0.984382
	C9167	C	0.611109	1.007732	0.967083
	F9168	F	0.607088	1.023411	0.992369
	C9169	C	0.589352	0.990581	0.923321
	C9170	C	0.595137	0.975662	0.898737
	F9171	F	0.577208	0.961757	0.859464
	C9172	C	0.618786	0.974690	0.914096
	F9173	F	0.620514	0.957245	0.886405
	C9174	C	0.640273	0.991354	0.957425
	F9175	F	0.699034	0.930535	1.042780
	C9176	C	0.695816	0.920935	1.012645
	C9177	C	0.707980	0.938642	1.021848
	F9178	F	0.724747	0.965406	1.062073
	C9179	C	0.702407	0.928667	0.989149
	C9180	C	0.687877	0.901186	0.949544
	F9181	F	0.683807	0.891395	0.918783
	C9182	C	0.677248	0.883820	0.941432
	F9183	F	0.663826	0.857727	0.903649
	C9184	C	0.679599	0.893090	0.971740
	F9185	F	0.337282	0.893515	0.772203
	C9186	C	0.369440	0.912510	0.805825
	C9187	C	0.383741	0.917245	0.799187
	F9188	F	0.365272	0.902242	0.758836
	C9189	C	0.417297	0.937697	0.834469
	C9190	C	0.436104	0.952467	0.875768
	F9191	F	0.468109	0.973056	0.911211
	C9192	C	0.422100	0.945989	0.880677
	F9193	F	0.441408	0.958217	0.918493
	C9194	C	0.388510	0.927200	0.847167
	C9195	C	0.508326	0.971038	0.866715
	C9196	C	0.520392	0.986406	0.872165
	C9197	C	0.502644	0.992167	0.861050
	C9198	C	0.474197	0.983950	0.847488
	C9199	C	0.461773	0.968022	0.841275
	C9200	C	0.478421	0.961061	0.849805
	C9201	C	0.554047	0.996398	0.895054
	C9202	C	0.532656	0.969053	0.882820
	N9203	N	0.560387	0.985940	0.901874
	O9204	O	0.530711	0.956073	0.880912
	O9205	O	0.573364	1.011190	0.907647
	C9206	C	0.462385	0.995296	0.842614
	C9207	C	0.509510	1.008456	0.864092
	N9208	N	0.484851	1.010167	0.853636
	O9209	O	0.530750	1.017949	0.872332
	O9210	O	0.438997	0.993167	0.832012
	C9211	C	0.459717	0.944119	0.840369
	C9212	C	0.433382	0.957910	0.830255
	N9213	N	0.433470	0.943665	0.830258
	O9214	O	0.414283	0.961268	0.823948
	O9215	O	0.464730	0.932822	0.841128
	N9216	N	0.589779	0.396411	0.914299
	N9217	N	0.573286	0.378601	0.896660
	N9218	N	0.118763	0.671399	0.014063
	N9219	N	0.122701	0.663156	0.019083
	N9220	N	0.932494	0.010146	0.953874
	N9221	N	0.923667	0.011165	0.936992
	N9222	N	0.741974	0.148826	0.126498
	N9223	N	0.728984	0.129859	0.108103
	N9224	N	0.268440	0.867785	0.368147
	N9225	N	0.270652	0.857543	0.369488
	N9226	N	0.186659	0.485651	0.228068
	N9227	N	0.194231	0.475276	0.226830
	N9228	N	0.737241	0.058063	0.086819
	N9229	N	0.747982	0.070419	0.118762
	N9230	N	0.978484	0.059086	0.745921
	N9231	N	0.977148	0.043588	0.736019
	N9232	N	0.690088	0.188906	0.218853
	N9233	N	0.707045	0.207058	0.237454
	N9234	N	0.568875	0.799312	0.813039
	N9235	N	0.594863	0.815904	0.840374
	N9236	N	0.104972	0.166504	0.445373
	N9237	N	0.081327	0.150756	0.410370
	N9238	N	0.092287	0.735107	0.760328
	N9239	N	0.089420	0.722463	0.757027
	N9240	N	0.398808	0.609472	1.011089
	N9241	N	0.381406	0.603697	0.985301
	N9242	N	0.224472	0.808966	0.385820
	N9243	N	0.222819	0.802083	0.362405
	N9244	N	0.229999	0.283718	0.105627
	N9245	N	0.254416	0.296595	0.124538
	N9246	N	0.230573	0.306553	0.858116
	N9247	N	0.237839	0.326778	0.881669
	N9248	N	0.254606	0.908833	0.912476
	N9249	N	0.267972	0.929345	0.947651
	N9250	N	0.408813	0.567421	0.643355
	N9251	N	0.396110	0.574461	0.650369
	N9252	N	0.875304	0.773796	1.009507
	N9253	N	0.852319	0.752488	0.975055
	N9254	N	0.454852	0.633105	0.513693
	N9255	N	0.480572	0.646475	0.536009
	N9256	N	0.789211	0.014479	0.626438
	N9257	N	0.805786	0.020196	0.652329
	N9258	N	0.049408	0.084475	0.819984
	N9259	N	0.057216	0.103427	0.851342
	N9260	N	0.002162	-0.003472	0.926952
	N9261	N	0.007240	0.013780	0.956419
	N9262	N	0.384955	-0.006063	0.309763
	N9263	N	0.399829	0.016107	0.343253
	N9264	N	0.465109	0.250343	0.485292
	N9265	N	0.473366	0.240718	0.470886
	C9266	C	0.348167	0.058420	0.081661
	O9267	O	0.362184	0.076459	0.096893
	O9268	O	0.334185	0.040410	0.066464
	C9269	C	0.749807	0.676942	0.944625
	O9270	O	0.748391	0.687328	0.942253
	O9271	O	0.751223	0.666565	0.946998
	C9272	C	0.610593	0.861581	0.587515
	O9273	O	0.596010	0.838483	0.558667
	O9274	O	0.625157	0.884661	0.616329
	C9275	C	0.924137	0.420970	0.107002
	O9276	O	0.908764	0.399121	0.082487
	O9277	O	0.939491	0.442812	0.131484
	C9278	C	0.795498	0.011398	0.372170
	O9279	O	0.770266	-0.000791	0.339952
	O9280	O	0.820765	0.023604	0.404422
	C9281	C	0.427380	0.189253	0.614782
	O9282	O	0.429937	0.185579	0.595596
	O9283	O	0.424825	0.192934	0.634002
	C9284	C	0.882226	0.231741	0.036103
	O9285	O	0.870392	0.220430	0.032974
	O9286	O	0.894061	0.243053	0.039232
	C9287	C	0.723664	0.631702	0.117971
	O9288	O	0.721506	0.631911	0.134131
	O9289	O	0.725803	0.631486	0.101776
	C9290	C	0.346899	0.012785	0.985783
	O9291	O	0.323385	0.009040	0.974608
	O9292	O	0.370413	0.016530	0.996957
	C9293	C	0.554863	0.186049	0.414634
	O9294	O	0.559049	0.198148	0.444066
	O9295	O	0.550695	0.173968	0.385236
	C9296	C	0.753372	0.973942	0.127667
	O9297	O	0.768047	0.986640	0.134509
	O9298	O	0.738694	0.961227	0.120790
	C9299	C	0.754135	0.673955	0.741452
	O9300	O	0.761093	0.664451	0.723297
	O9301	O	0.747178	0.683449	0.759606
	C9302	C	0.016958	0.428759	0.886413
	O9303	O	0.040717	0.439066	0.917256
	O9304	O	-0.006818	0.418434	0.855537
	C9305	C	0.073608	0.554716	0.467207
	O9306	O	0.072455	0.536717	0.442038
	O9307	O	0.074763	0.572742	0.492410
	C9308	C	0.907809	0.826889	0.725154
	O9309	O	0.907109	0.836651	0.721681
	O9310	O	0.908491	0.817109	0.728592
	C9311	C	0.502999	0.327980	0.561246
	O9312	O	0.522402	0.332347	0.563963
	O9313	O	0.483593	0.323606	0.558496
	C9314	C	0.800750	0.053558	0.141249
	O9315	O	0.781636	0.046844	0.113295
	O9316	O	0.819866	0.060280	0.169237
	C9317	C	0.815974	0.079228	0.674369
	O9318	O	0.808411	0.063065	0.664844
	O9319	O	0.823536	0.095392	0.683893
	C9320	C	0.909708	0.476830	0.342669
	O9321	O	0.900656	0.479731	0.356147
	O9322	O	0.918742	0.473910	0.329156
	C9323	C	0.717194	0.147395	0.275998
	O9324	O	0.734510	0.142723	0.278577
	O9325	O	0.699896	0.152085	0.273454
	C9326	C	0.630127	0.434807	0.252067
	O9327	O	0.652523	0.440329	0.276239
	O9328	O	0.607713	0.429276	0.227861
	C9329	C	0.553641	0.984657	0.715870
	O9330	O	0.578133	0.990612	0.728936
	O9331	O	0.529166	0.978711	0.702804
	C9332	C	0.709262	0.746616	0.259976
	O9333	O	0.727991	0.756300	0.291815
	O9334	O	0.690515	0.736914	0.228102
	C9335	C	0.702844	0.729333	0.991765
	O9336	O	0.679442	0.712147	0.953565
	O9337	O	0.726246	0.746519	1.029966
	C9338	C	0.230356	0.818312	0.918872
	O9339	O	0.220873	0.807833	0.887720
	O9340	O	0.239856	0.828819	0.950058
	C9341	C	0.748569	0.563038	0.548215
	O9342	O	0.758409	0.561423	0.536318
	O9343	O	0.738729	0.564662	0.560112
	C9344	C	0.487958	0.136673	0.968350
	O9345	O	0.484460	0.129969	0.975571
	O9346	O	0.491437	0.143358	0.961095
	C9347	C	0.587254	0.329479	0.802448
	O9348	O	0.579138	0.311635	0.768580
	O9349	O	0.595370	0.347322	0.836316
	C9350	C	0.592517	0.897390	0.922241
	O9351	O	0.565650	0.878156	0.885691
	O9352	O	0.619386	0.916651	0.958826
	C9353	C	0.093836	0.137669	0.157684
	O9354	O	0.117409	0.141037	0.169925
	O9355	O	0.070262	0.134310	0.145443
	C9356	C	0.607299	0.791629	0.550931
	O9357	O	0.622099	0.785940	0.544948
	O9358	O	0.592499	0.797319	0.556914
	C9359	C	0.332976	0.488993	0.534771
	O9360	O	0.312734	0.486248	0.531470
	O9361	O	0.353184	0.491731	0.538037
	C9362	C	0.765830	0.600605	0.483126
	O9363	O	0.760439	0.586621	0.452043
	O9364	O	0.771254	0.614616	0.514244
	C9365	C	0.955158	0.577560	0.251586
	O9366	O	0.972948	0.575736	0.264755
	O9367	O	0.937349	0.579375	0.238383
	C9368	C	0.734441	0.042818	0.133409
	O9369	O	0.739356	0.030929	0.112779
	O9370	O	0.729523	0.054679	0.154005
	C9371	C	0.060506	0.728807	0.963330
	O9372	O	0.044366	0.734646	0.961680
	O9373	O	0.076664	0.722977	0.965015
	C9374	C	0.232308	0.932088	0.005983
	O9375	O	0.230314	0.917109	-0.000791
	O9376	O	0.234320	0.947074	0.012791
	C9377	C	0.963944	0.428160	0.628810
	O9378	O	0.984060	0.426661	0.635412
	O9379	O	0.943810	0.429642	0.622174
	C9380	C	0.556719	0.687753	0.647343
	O9381	O	0.559922	0.704887	0.659171
	O9382	O	0.553516	0.670618	0.635515
	C9383	C	0.771252	0.616341	0.748500
	O9384	O	0.766707	0.612664	0.725635
	O9385	O	0.775830	0.620036	0.771400
	C9386	C	0.553257	0.275880	0.918597
	O9387	O	0.576103	0.282846	0.928121
	O9388	O	0.530409	0.268896	0.909038
	C9389	C	0.510885	0.156041	0.091255
	O9390	O	0.497270	0.164324	0.094212
	O9391	O	0.524500	0.147758	0.088298
	C9392	C	0.583684	0.437153	0.415150
	O9393	O	0.581459	0.436356	0.430210
	O9394	O	0.585909	0.437949	0.400089
	C9395	C	0.776482	0.591380	0.083312
	O9396	O	0.761990	0.595168	0.090532
	O9397	O	0.790974	0.587592	0.076091
	C9398	C	0.230000	0.879279	0.499287
	O9399	O	0.243462	0.873312	0.506610
	O9400	O	0.216553	0.885247	0.491963
	C9401	C	0.443666	0.517451	0.661303
	O9402	O	0.468748	0.523335	0.677154
	O9403	O	0.418585	0.511594	0.645486
	C9404	C	0.242872	0.724686	0.383379
	O9405	O	0.247755	0.733592	0.379803
	O9406	O	0.238007	0.715798	0.386989
	C9407	C	0.005706	0.876997	0.766380
	O9408	O	0.001863	0.871265	0.774769
	O9409	O	0.009532	0.882729	0.757990
	C9410	C	0.448611	0.021436	0.662163
	O9411	O	0.469435	0.020868	0.672203
	O9412	O	0.427771	0.021994	0.652123
	C9413	C	0.083982	0.544428	0.288789
	O9414	O	0.076317	0.551540	0.305706
	O9415	O	0.091630	0.537315	0.271872
	C9416	C	0.289851	0.308700	0.354084
	O9417	O	0.309511	0.332420	0.387814
	O9418	O	0.270192	0.284970	0.320354
	C9419	C	0.717054	0.036589	0.609418
	O9420	O	0.721981	0.022028	0.591470
	O9421	O	0.712143	0.051160	0.627366
	C9422	C	0.758617	0.208824	0.736088
	O9423	O	0.751524	0.219667	0.753830
	O9424	O	0.765695	0.197981	0.718346
	C9425	C	0.739048	0.978548	0.630358
	O9426	O	0.751938	0.989684	0.633899
	O9427	O	0.726141	0.967402	0.626816
	C9428	C	0.016644	0.410508	0.798872
	O9429	O	0.018617	0.408103	0.780443
	O9430	O	0.014656	0.412904	0.817302
	C9431	C	0.476872	0.814797	0.290784
	O9432	O	0.472653	0.818930	0.309179
	O9433	O	0.481091	0.810674	0.272388
	C9434	C	0.542980	0.478628	0.457957
	O9435	O	0.558984	0.473693	0.464800
	O9436	O	0.526977	0.483580	0.451149
	C9437	C	0.497052	0.351886	0.082074
	O9438	O	0.490090	0.350563	0.061203
	O9439	O	0.504015	0.353198	0.102945
	C9440	C	0.587423	0.281241	0.053157
	O9441	O	0.582652	0.263313	0.022453
	O9442	O	0.592160	0.299152	0.083828
	C9443	C	0.550029	0.981741	0.962780
	O9444	O	0.539135	0.991194	0.962711
	O9445	O	0.560922	0.972271	0.962814
	C9446	C	0.735075	0.216300	0.376330
	O9447	O	0.754315	0.216259	0.392147
	O9448	O	0.715835	0.216341	0.360514
	C9449	C	0.361783	0.085775	0.848076
	O9450	O	0.358973	0.069398	0.838104
	O9451	O	0.364609	0.102151	0.858047
	C9452	C	0.577220	0.451564	0.009215
	O9453	O	0.580614	0.467243	0.038991
	O9454	O	0.573825	0.435885	-0.020561
	C9455	C	0.379434	0.985714	0.041054
	O9456	O	0.370077	0.971166	0.007255
	O9457	O	0.388808	1.000272	0.074853
	C9458	C	0.145071	0.221652	0.871147
	O9459	O	0.146823	0.204595	0.853164
	O9460	O	0.143301	0.238680	0.889095
	C9461	C	0.087147	0.664043	0.635274
	O9462	O	0.092774	0.677696	0.639641
	O9463	O	0.081536	0.650381	0.630908
	C9464	C	0.252514	0.023982	0.490003
	O9465	O	0.268622	0.034017	0.494473
	O9466	O	0.236390	0.013937	0.485533
	C9467	C	0.937707	0.864107	0.926539
	O9468	O	0.917325	0.847564	0.909657
	O9469	O	0.958090	0.880650	0.943422
	C9470	C	0.511754	0.379045	0.373855
	O9471	O	0.513200	0.397728	0.397511
	O9472	O	0.510309	0.360362	0.350199
	C9473	C	0.990508	0.884439	0.468754
	O9474	O	0.997546	0.880418	0.482095
	O9475	O	0.983505	0.888468	0.455447
	C9476	C	0.756414	0.044278	0.766036
	O9477	O	0.774222	0.046643	0.787732
	O9478	O	0.738571	0.041895	0.744305
	C9479	C	0.079087	0.481807	0.933966
	O9480	O	0.105148	0.490029	0.957622
	O9481	O	0.053044	0.473613	0.910345
	C9482	C	0.378020	0.542802	0.125570
	O9483	O	0.399615	0.559929	0.164079
	O9484	O	0.356442	0.525685	0.087060
	C9485	C	0.085322	0.538359	0.049169
	O9486	O	0.090783	0.554304	0.080802
	O9487	O	0.079896	0.522441	0.017570
	C9488	C	0.813065	0.123521	0.160710
	O9489	O	0.805218	0.133884	0.177455
	O9490	O	0.820896	0.113148	0.143965
	C9491	C	0.109025	0.650568	0.744512
	O9492	O	0.112474	0.639255	0.744821
	O9493	O	0.105559	0.661870	0.744202
	C9494	C	0.045712	0.011531	0.017639
	O9495	O	0.019215	-0.008632	-0.014063
	O9496	O	0.072225	0.031705	0.049341
	C9497	C	0.457320	0.350305	0.879915
	O9498	O	0.484413	0.370106	0.912786
	O9499	O	0.430227	0.330514	0.847044
	C9500	C	0.071597	0.671738	0.889542
	O9501	O	0.069926	0.683912	0.890711
	O9502	O	0.073233	0.659555	0.888339
	C9503	C	0.043573	0.401759	0.998814
	O9504	O	0.016489	0.382261	0.962814
	O9505	O	0.070622	0.421239	1.034779
	C9506	C	0.166970	0.789989	0.376055
	O9507	O	0.139383	0.778214	0.351952
	O9508	O	0.194557	0.801754	0.400158
	C9509	C	0.015025	0.532128	0.504032
	O9510	O	-0.000028	0.520826	0.470611
	O9511	O	0.030079	0.543440	0.537453
	C9512	C	0.325693	0.507380	0.465831
	O9513	O	0.351632	0.517055	0.483161
	O9514	O	0.299754	0.497715	0.448502
	C9515	C	0.484337	0.812922	0.718071
	O9516	O	0.506106	0.816452	0.738942
	O9517	O	0.462551	0.809393	0.697200
	C9518	C	0.381192	0.602302	0.128286
	O9519	O	0.377322	0.614514	0.130143
	O9520	O	0.385079	0.590100	0.126429
	C9521	C	0.039136	0.436342	0.165558
	O9522	O	0.037371	0.444304	0.188389
	O9523	O	0.040902	0.428379	0.142727
	C9524	C	0.381974	0.699816	0.804099
	O9525	O	0.368638	0.702965	0.812901
	O9526	O	0.395310	0.696667	0.795297
	C9527	C	0.439357	0.233404	0.595389
	O9528	O	0.444993	0.221305	0.575894
	O9529	O	0.433721	0.245503	0.614885
	C9530	C	0.897381	0.896521	0.302165
	O9531	O	0.882227	0.874967	0.278543
	O9532	O	0.912534	0.918085	0.325786
	C9533	C	0.013143	0.912962	0.602369
	O9534	O	-0.007297	0.897186	0.564719
	O9535	O	0.033581	0.928719	0.639985
	C9536	C	0.936579	0.461019	0.680592
	O9537	O	0.915749	0.439750	0.654461
	O9538	O	0.957393	0.482278	0.706724
	C9539	C	0.758659	0.603440	0.862414
	O9540	O	0.755533	0.584745	0.845634
	O9541	O	0.761804	0.622164	0.879227
	C9542	C	0.303253	0.363682	0.643251
	O9543	O	0.310372	0.357750	0.626232
	O9544	O	0.296116	0.369587	0.660237
	C9545	C	0.419831	0.047560	0.185569
	O9546	O	0.411563	0.034740	0.181856
	O9547	O	0.428099	0.060380	0.189283
	C9548	C	0.253714	0.392173	0.134234
	O9549	O	0.274623	0.402023	0.165833
	O9550	O	0.232807	0.382332	0.102670
	C9551	C	0.061509	0.531166	0.957553
	O9552	O	0.077988	0.536780	0.957760
	O9553	O	0.045047	0.525552	0.957347
	C9554	C	0.949579	0.101502	0.127873
	O9555	O	0.924338	0.088412	0.094487
	O9556	O	0.974820	0.114591	0.161260
	C9557	C	0.661109	0.961655	0.124916
	O9558	O	0.664817	0.976646	0.131655
	O9559	O	0.657383	0.946646	0.118143
	C9560	C	0.944420	0.977002	0.958791
	O9561	O	0.918021	0.959672	0.922276
	O9562	O	0.970800	0.994324	0.995272
	C9563	C	0.992194	0.390640	0.217133
	O9564	O	0.998724	0.383976	0.226004
	O9565	O	0.985646	0.397296	0.208228
	C9566	C	0.204153	0.967643	0.493716
	O9567	O	0.221417	0.974158	0.521808
	O9568	O	0.186908	0.961157	0.465659
	C9569	C	0.548191	0.191115	0.653120
	O9570	O	0.560311	0.184905	0.660959
	O9571	O	0.536087	0.197324	0.645280
	C9572	C	0.203871	0.873423	0.975605
	O9573	O	0.211084	0.861103	0.959204
	O9574	O	0.196693	0.885771	0.992040
	C9575	C	0.717719	0.222523	0.497464
	O9576	O	0.708853	0.201081	0.465350
	O9577	O	0.726585	0.243965	0.529579
	C9578	C	0.039722	0.669578	0.438840
	O9579	O	0.048569	0.667526	0.425740
	O9580	O	0.030894	0.671648	0.451975
	C9581	C	0.147227	0.291169	0.868843
	O9582	O	0.163061	0.307382	0.881806
	O9583	O	0.131359	0.274939	0.855846
	C9584	C	0.157164	0.704001	0.351505
	O9585	O	0.152627	0.692809	0.351643
	O9586	O	0.161702	0.715203	0.351368
	C9587	C	0.020893	0.056770	0.299723
	O9588	O	-0.006373	0.044137	0.277168
	O9589	O	0.048160	0.069393	0.322279
	C9590	C	0.552158	0.486394	0.964052
	O9591	O	0.576557	0.491015	0.978424
	O9592	O	0.527759	0.481782	0.949680
	C9593	C	0.916149	0.302688	0.699503
	O9594	O	0.916447	0.297513	0.710094
	O9595	O	0.915854	0.307892	0.688948
	C9596	C	0.505953	0.136112	0.531092
	O9597	O	0.508385	0.131977	0.511424
	O9598	O	0.503537	0.140247	0.550759
	C9599	C	0.488207	0.373635	0.616810
	O9600	O	0.487032	0.373372	0.632971
	O9601	O	0.489398	0.373898	0.600650
	C9602	C	0.976283	0.563138	0.714701
	O9603	O	0.999871	0.568608	0.737291
	O9604	O	0.952677	0.557651	0.692076
	C9605	C	0.612269	0.927458	0.725635
	O9606	O	0.632669	0.926429	0.731755
	O9607	O	0.591869	0.928487	0.719515
	C9608	C	0.265935	0.450316	0.506301
	O9609	O	0.263750	0.433899	0.477934
	O9610	O	0.268103	0.466726	0.534633
	C9611	C	0.279570	0.023375	0.737532
	O9612	O	0.271961	0.035711	0.742930
	O9613	O	0.287196	0.011030	0.732134
	C9614	C	0.821972	0.586558	0.649200
	O9615	O	0.827908	0.585479	0.666736
	O9616	O	0.816033	0.587620	0.631630
	C9617	C	0.070259	0.643299	0.363264
	O9618	O	0.089922	0.641706	0.366978
	O9619	O	0.050614	0.644910	0.359585
	C9620	C	0.424770	0.797962	0.441075
	O9621	O	0.440662	0.806890	0.472158
	O9622	O	0.408844	0.789015	0.409958
	C9623	C	0.223949	0.987495	0.250623
	O9624	O	0.202991	0.987959	0.240961
	O9625	O	0.244889	0.987022	0.260251
	C9626	C	0.733509	0.724195	0.747950
	O9627	O	0.744586	0.734660	0.779652
	O9628	O	0.722467	0.713758	0.716283
	C9629	C	0.394817	0.718934	0.629601
	O9630	O	0.385432	0.719757	0.611343
	O9631	O	0.404220	0.718139	0.647893
	C9632	C	0.195164	0.477901	0.504135
	O9633	O	0.221572	0.494783	0.540272
	O9634	O	0.168737	0.461011	0.467963
	C9635	C	0.953061	0.372337	0.933244
	O9636	O	0.966822	0.385298	0.939880
	O9637	O	0.939298	0.359348	0.926574
	C9638	C	0.746974	0.478111	0.138910
	O9639	O	0.740625	0.466512	0.137845
	O9640	O	0.753339	0.489710	0.139976
	C9641	C	0.449524	0.320796	0.485052
	O9642	O	0.429920	0.321576	0.471745
	O9643	O	0.469129	0.320007	0.498358
	C9644	C	0.948916	0.300130	0.397820
	O9645	O	0.945476	0.294667	0.406726
	O9646	O	0.952355	0.305575	0.388880
	C9647	C	0.710851	0.227666	0.998264
	O9648	O	0.689879	0.216048	0.964602
	O9649	O	0.731840	0.239302	1.031960
	C9650	C	0.219556	0.325574	0.688294
	O9651	O	0.233805	0.324173	0.704867
	O9652	O	0.205324	0.326966	0.671721
	C9653	C	0.110062	0.043589	0.314577
	O9654	O	0.130622	0.047783	0.318944
	O9655	O	0.089502	0.039394	0.310210
	C9656	C	0.762460	0.625396	0.001616
	O9657	O	0.769790	0.629950	0.026372
	O9658	O	0.755114	0.620842	-0.023140
	C9659	C	0.107484	0.620831	0.089123
	O9660	O	0.124397	0.644626	0.123747
	O9661	O	0.090588	0.597036	0.054498
	C9662	C	0.050988	0.226477	0.206646
	O9663	O	0.028421	0.221767	0.198429
	O9664	O	0.073570	0.231186	0.214864
	C9665	C	0.081002	0.071873	0.766964
	O9666	O	0.087208	0.081881	0.765520
	O9667	O	0.074779	0.061864	0.768408
	C9668	C	0.537442	0.363462	0.925233
	O9669	O	0.532188	0.354113	0.928018
	O9670	O	0.542731	0.372829	0.922482
	C9671	C	0.591153	0.238385	0.679836
	O9672	O	0.581893	0.240190	0.663057
	O9673	O	0.600379	0.236562	0.696581
	C9674	C	0.884267	0.470801	0.623687
	O9675	O	0.891432	0.467265	0.637784
	O9676	O	0.877085	0.474327	0.609590
	C9677	C	0.615479	0.403421	0.441247
	O9678	O	0.635996	0.405757	0.444995
	O9679	O	0.594963	0.401094	0.437499
	C9680	C	0.248537	0.229060	0.140251
	O9681	O	0.253029	0.237312	0.135575
	O9682	O	0.244042	0.220801	0.144893
	C9683	C	0.625151	0.978955	0.535286
	O9684	O	0.649454	0.989464	0.549659
	O9685	O	0.600846	0.968428	0.520880
	C9686	C	0.300628	0.405667	0.977530
	O9687	O	0.320484	0.420610	1.014527
	O9688	O	0.280771	0.390734	0.940534
	C9689	C	0.567174	0.426964	0.891777
	O9690	O	0.566083	0.432925	0.882116
	O9691	O	0.568299	0.421031	0.901474
	C9692	C	0.244339	0.517922	0.479172
	O9693	O	0.253927	0.526250	0.477006
	O9694	O	0.234732	0.509577	0.481304
	C9695	C	0.950150	0.448258	0.408926
	O9696	O	0.930411	0.428161	0.386233
	O9697	O	0.969889	0.468354	0.431619
	C9698	C	0.953720	0.475086	0.089329
	O9699	O	0.929903	0.452238	0.052848
	O9700	O	0.977518	0.497926	0.125776
	C9701	C	0.762406	0.192934	0.490966
	O9702	O	0.762856	0.190171	0.471333
	O9703	O	0.761959	0.195725	0.510633
	C9704	C	0.440436	0.845097	0.105730
	O9705	O	0.416339	0.834397	0.091530
	O9706	O	0.464533	0.855797	0.119931
	C9707	C	0.244146	0.276273	0.607733
	O9708	O	0.239128	0.291265	0.622277
	O9709	O	0.249182	0.261290	0.593223
	C9710	C	0.071861	0.208190	0.748500
	O9711	O	0.093642	0.217317	0.757956
	O9712	O	0.050045	0.199046	0.739010
	C9713	C	0.095839	0.708295	0.240549
	O9714	O	0.068100	0.696081	0.215586
	O9715	O	0.123561	0.720509	0.265511
	C9716	C	0.259096	0.297170	0.271254
	O9717	O	0.253344	0.303522	0.261764
	O9718	O	0.264847	0.290819	0.280743
	C9719	C	0.187575	0.753557	0.571286
	O9720	O	0.204837	0.758636	0.571871
	O9721	O	0.170328	0.748488	0.570702
	C9722	C	0.074263	0.469152	0.690220
	O9723	O	0.071297	0.449882	0.670552
	O9724	O	0.077213	0.488432	0.709887
	C9725	C	0.770133	0.059101	0.576100
	O9726	O	0.754740	0.045399	0.567332
	O9727	O	0.785543	0.072831	0.584902
	C9728	C	0.017260	0.614075	0.154383
	O9729	O	0.011525	0.600893	0.150842
	O9730	O	0.022976	0.627239	0.157890
	C9731	C	0.298988	0.910929	0.996373
	O9732	O	0.272624	0.901875	0.977599
	O9733	O	0.325333	0.919976	1.015112
	C9734	C	0.575310	0.213537	0.938436
	O9735	O	0.560344	0.213685	0.919903
	O9736	O	0.590241	0.213371	0.956935
	C9737	C	0.501374	0.822929	0.477831
	O9738	O	0.524467	0.831087	0.505957
	O9739	O	0.478299	0.814800	0.449740
	C9740	C	0.546913	0.377257	0.191449
	O9741	O	0.527314	0.365851	0.182200
	O9742	O	0.566512	0.388663	0.200698
	C9743	C	0.074273	0.654029	0.125776
	O9744	O	0.072060	0.639786	0.120584
	O9745	O	0.076504	0.668301	0.131002
	C9746	C	0.633674	0.931098	0.523802
	O9747	O	0.631167	0.919275	0.523287
	O9748	O	0.636165	0.942922	0.524318
	C9749	C	0.573669	0.971696	0.232572
	O9750	O	0.590063	0.979804	0.235116
	O9751	O	0.557276	0.963588	0.230027
	C9752	C	0.497865	0.140501	0.790173
	O9753	O	0.490902	0.145881	0.807056
	O9754	O	0.504810	0.135104	0.773257
	C9755	C	0.942540	0.767208	0.910448
	O9756	O	0.921389	0.765995	0.905049
	O9757	O	0.963692	0.768410	0.915846
	C9758	C	0.457529	0.726099	0.962677
	O9759	O	0.484366	0.739983	0.984957
	O9760	O	0.430709	0.712216	0.940396
	C9761	C	0.439710	0.519405	0.908453
	O9762	O	0.421404	0.520864	0.908866
	O9763	O	0.457998	0.517928	0.908006
	C9764	C	0.703714	0.021409	0.843262
	O9765	O	0.707908	0.014956	0.823285
	O9766	O	0.699502	0.027844	0.863204
	C9767	C	0.829582	0.755683	0.821841
	O9768	O	0.803864	0.740860	0.800798
	O9769	O	0.855297	0.770497	0.842849
	C9770	C	0.730149	0.199565	0.591951
	O9771	O	0.719509	0.198962	0.571596
	O9772	O	0.740754	0.200149	0.612272
	C9773	C	0.926313	0.324241	0.976293
	O9774	O	0.925224	0.319886	0.987571
	O9775	O	0.927403	0.328587	0.965015
	C9776	C	0.134355	0.680806	0.503103
	O9777	O	0.150916	0.693312	0.537831
	O9778	O	0.117778	0.668301	0.468376
	C9779	C	0.575142	0.435305	0.151770
	O9780	O	0.578571	0.441037	0.143208
	O9781	O	0.571712	0.429582	0.160332
	C9782	C	0.571049	0.764813	0.275895
	O9783	O	0.556244	0.741271	0.243506
	O9784	O	0.585853	0.788364	0.308285
	C9785	C	0.046898	0.902466	0.251380
	O9786	O	0.020923	0.882703	0.213489
	O9787	O	0.072872	0.922211	0.289236
	C9788	C	0.370095	0.579865	0.848007
	O9789	O	0.373049	0.597844	0.862414
	O9790	O	0.367140	0.561876	0.833600
	C9791	C	0.793196	0.524955	0.628845
	O9792	O	0.774750	0.512182	0.593739
	O9793	O	0.811623	0.537710	0.663916
	C9794	C	0.893950	0.299216	0.580948
	O9795	O	0.906793	0.297039	0.596593
	O9796	O	0.881124	0.301421	0.565338
	C9797	C	0.771617	0.272200	0.227861
	O9798	O	0.792607	0.272230	0.240411
	O9799	O	0.750626	0.272170	0.215311
	C9800	C	0.744070	0.140366	0.629636
	O9801	O	0.745975	0.137496	0.643836
	O9802	O	0.742167	0.143254	0.615469
	C9803	C	0.983370	0.083191	0.009868
	O9804	O	0.983184	0.068137	-0.016539
	O9805	O	0.983556	0.098255	0.036275
	C9806	C	0.753539	0.621741	0.620558
	O9807	O	0.732303	0.618056	0.598793
	O9808	O	0.774773	0.625398	0.642289
	C9809	C	0.451314	0.851907	0.379253
	O9810	O	0.426290	0.842460	0.350886
	O9811	O	0.476323	0.861353	0.407620
	C9812	C	0.415653	0.060563	0.961576
	O9813	O	0.419082	0.062667	0.948579
	O9814	O	0.412205	0.058441	0.974539
	C9815	C	0.563518	0.834796	0.594942
	O9816	O	0.574854	0.849894	0.603676
	O9817	O	0.552183	0.819697	0.586209
	C9818	C	0.859470	0.823020	0.322245
	O9819	O	0.861908	0.841379	0.338302
	O9820	O	0.857013	0.804644	0.306153
	C9821	C	0.577541	0.274085	0.786632
	O9822	O	0.586127	0.294859	0.819503
	O9823	O	0.568952	0.253293	0.753727
	C9824	C	0.813754	0.664394	0.207815
	O9825	O	0.794070	0.665113	0.194509
	O9826	O	0.833438	0.663675	0.221122
	C9827	C	0.154619	0.300115	0.089363
	O9828	O	0.154934	0.309853	0.085959
	O9829	O	0.154319	0.290367	0.092767
	C9830	C	0.495506	0.212939	0.866540
	O9831	O	0.488275	0.211238	0.877714
	O9832	O	0.502737	0.214630	0.855365
	C9833	C	0.495557	0.179431	0.648547
	O9834	O	0.480111	0.179893	0.630770
	O9835	O	0.511019	0.178968	0.666323
	C9836	C	0.078937	0.160477	0.876408
	O9837	O	0.089599	0.150556	0.875136
	O9838	O	0.068256	0.170391	0.877646
	C9839	C	0.909376	0.404205	0.535046
	O9840	O	0.929697	0.427052	0.565200
	O9841	O	0.889054	0.381348	0.504891
	C9842	C	0.690037	0.181172	0.499562
	O9843	O	0.699792	0.196701	0.508467
	O9844	O	0.680247	0.165614	0.490622
	C9845	C	0.928329	0.295970	0.871835
	O9846	O	0.920211	0.308557	0.884866
	O9847	O	0.936449	0.283400	0.858838
	C9848	C	0.311428	0.845829	0.421923
	O9849	O	0.315404	0.839388	0.431241
	O9850	O	0.307437	0.852260	0.412605
	C9851	C	0.797840	0.572129	0.856843
	O9852	O	0.817354	0.586221	0.869394
	O9853	O	0.778308	0.558020	0.844259
	C9854	C	0.250713	0.350915	0.679733
	O9855	O	0.237460	0.349358	0.658105
	O9856	O	0.263983	0.352472	0.701360
	C9857	C	0.233251	0.456588	0.245122
	O9858	O	0.253628	0.474699	0.284251
	O9859	O	0.212908	0.438484	0.206028
	C9860	C	0.242220	0.376561	0.366153
	O9861	O	0.258505	0.379185	0.388846
	O9862	O	0.225952	0.373964	0.343494
	C9863	C	0.786916	0.506976	0.116286
	O9864	O	0.801823	0.509060	0.138463
	O9865	O	0.772009	0.504891	0.094108
	C9866	C	0.622499	0.402519	0.502966
	O9867	O	0.630208	0.420436	0.516272
	O9868	O	0.614805	0.384613	0.489659
	C9869	C	0.589499	0.925749	0.649784
	O9870	O	0.590164	0.929731	0.637888
	O9871	O	0.588835	0.921775	0.661716
	C9872	C	0.287074	0.850102	0.128527
	O9873	O	0.274261	0.852135	0.112607
	O9874	O	0.299869	0.848061	0.144412
	C9875	C	0.554420	0.148943	0.742174
	O9876	O	0.529999	0.131726	0.704317
	O9877	O	0.578807	0.166142	0.779996
	C9878	C	0.354408	0.032560	0.758265
	O9879	O	0.360976	0.020302	0.754552
	O9880	O	0.347840	0.044808	0.761979
	C9881	C	0.277532	0.806523	0.798872
	O9882	O	0.282470	0.817800	0.798976
	O9883	O	0.272593	0.795256	0.798769
	C9884	C	0.262763	0.798809	0.529132
	O9885	O	0.267239	0.789691	0.533705
	O9886	O	0.258271	0.807916	0.524559
	C9887	C	0.195453	0.379406	0.225454
	O9888	O	0.202839	0.367214	0.209260
	O9889	O	0.188049	0.391570	0.241615
	C9890	C	0.157510	0.706404	0.614507
	O9891	O	0.157001	0.692467	0.609865
	O9892	O	0.158017	0.720312	0.619114
	C9893	C	0.211205	0.932730	0.235838
	O9894	O	0.203676	0.916325	0.225833
	O9895	O	0.218734	0.949124	0.245844
	C9896	C	0.888758	0.344307	0.686231
	O9897	O	0.904383	0.340012	0.681211
	O9898	O	0.873118	0.348601	0.691251
	C9899	C	0.669395	0.996769	0.305087
	O9900	O	0.696741	1.015544	0.335895
	O9901	O	0.642031	0.977967	0.274245
	C9902	C	0.103295	0.525241	0.224767
	O9903	O	0.116155	0.516791	0.224835
	O9904	O	0.090437	0.533708	0.224732
	C9905	C	0.440407	0.148598	0.536490
	O9906	O	0.416385	0.126177	0.503172
	O9907	O	0.464411	0.170991	0.569773
	C9908	C	0.100888	0.621181	0.858528
	O9909	O	0.086701	0.597901	0.828408
	O9910	O	0.115040	0.644454	0.888614
	C9911	C	0.029866	0.121572	0.675056
	O9912	O	0.019965	0.109091	0.671205
	O9913	O	0.039765	0.134024	0.678873
	C9914	C	0.102208	0.029235	0.725601
	O9915	O	0.127571	0.036142	0.747813
	O9916	O	0.076844	0.022338	0.703389
	C9917	C	0.960952	0.066981	0.216790
	O9918	O	0.957398	0.080836	0.238555
	O9919	O	0.964522	0.053116	0.195025
	C9920	C	0.066033	0.561553	0.246841
	O9921	O	0.056526	0.552231	0.247735
	O9922	O	0.075539	0.570876	0.245947
	C9923	C	0.904243	0.349069	0.144446
	O9924	O	0.918297	0.345319	0.156481
	O9925	O	0.890188	0.352818	0.132412
	C9926	C	0.500630	0.261798	0.706827
	O9927	O	0.525429	0.271385	0.735675
	O9928	O	0.475848	0.252228	0.678013
	C9929	C	0.406694	0.253426	0.418107
	O9930	O	0.407777	0.240662	0.415768
	O9931	O	0.405646	0.266198	0.420479
	C9932	C	0.424235	0.290500	0.191277
	O9933	O	0.418767	0.272407	0.177420
	O9934	O	0.429705	0.308601	0.205168
	C9935	C	0.237672	0.431604	0.704833
	O9936	O	0.237634	0.449509	0.722884
	O9937	O	0.237707	0.413671	0.686747
	C9938	C	0.852947	0.327829	0.830058
	O9939	O	0.837636	0.307724	0.809944
	O9940	O	0.868259	0.347944	0.850173
	C9941	C	0.554407	0.756884	0.658312
	O9942	O	0.579710	0.770830	0.677635
	O9943	O	0.529123	0.742957	0.639022
	C9944	C	0.749022	0.707644	0.237282
	O9945	O	0.770752	0.710430	0.256537
	O9946	O	0.727293	0.704857	0.218027
	C9947	C	0.308100	0.315878	0.632214
	O9948	O	0.286458	0.294466	0.604982
	O9949	O	0.329742	0.337290	0.659446
	C9950	C	0.493764	0.869482	0.848523
	O9951	O	0.490159	0.869535	0.830230
	O9952	O	0.497369	0.869429	0.866815
	C9953	C	0.420038	0.531727	0.375986
	O9954	O	0.397765	0.524598	0.367322
	O9955	O	0.442329	0.538874	0.384686
	C9956	C	0.230641	0.943097	0.585005
	O9957	O	0.231046	0.936594	0.593704
	O9958	O	0.230255	0.949618	0.576341
	C9959	C	0.876388	0.749907	0.314199
	O9960	O	0.904570	0.765312	0.343219
	O9961	O	0.848222	0.734513	0.285179
	C9962	C	0.565802	0.313771	0.316846
	O9963	O	0.573781	0.313451	0.335723
	O9964	O	0.557820	0.314073	0.297935
	C9965	C	0.083372	0.167189	0.130280
	O9966	O	0.088343	0.183964	0.140939
	O9967	O	0.078417	0.150413	0.119621
	C9968	C	0.998294	0.555443	0.460605
	O9969	O	0.976435	0.551063	0.438084
	O9970	O	1.020170	0.559824	0.483126
	C9971	C	0.881933	0.947874	0.557430
	O9972	O	0.894607	0.941013	0.547665
	O9973	O	0.869276	0.954753	0.567229
	C9974	C	0.469367	0.722567	0.702220
	O9975	O	0.492048	0.742295	0.726838
	O9976	O	0.446668	0.702822	0.677566
	C9977	C	0.294725	0.259382	0.115289
	O9978	O	0.315456	0.265663	0.141971
	O9979	O	0.273993	0.253102	0.088607
	C9980	C	0.362689	0.089857	0.602094
	O9981	O	0.372165	0.111333	0.625509
	O9982	O	0.353228	0.068380	0.578679
	C9983	C	0.920127	0.313228	0.223357
	O9984	O	0.919418	0.317450	0.211323
	O9985	O	0.920855	0.309035	0.235426
	C9986	C	0.508042	0.326021	0.999846
	O9987	O	0.528905	0.335675	1.031204
	O9988	O	0.487162	0.316349	0.968453
	C9989	C	0.424855	0.033418	0.864545
	O9990	O	0.430183	0.034717	0.851755
	O9991	O	0.419530	0.032127	0.877371
	C9992	C	0.974564	0.272139	0.177042
	O9993	O	0.969627	0.261501	0.177970
	O9994	O	0.979485	0.282768	0.176114
	C9995	C	0.690480	0.462143	0.360479
	O9996	O	0.693851	0.481936	0.384514
	O9997	O	0.687092	0.442359	0.336445
	C9998	C	0.963554	0.337144	0.188423
	O9999	O	0.972191	0.357324	0.221982
	O10000	O	0.954916	0.316974	0.154864
	C10001	C	0.959555	0.377574	0.687228
	O10002	O	0.973129	0.389435	0.692180
	O10003	O	0.945980	0.365713	0.682277
	C10004	C	0.562034	0.277197	0.677601
	O10005	O	0.588916	0.290962	0.709956
	O10006	O	0.535152	0.263443	0.645246
	C10007	C	0.213305	0.937523	0.770506
	O10008	O	0.199607	0.917201	0.750494
	O10009	O	0.227022	0.957853	0.790552
	C10010	C	0.034459	0.142846	0.633830
	O10011	O	0.041342	0.131919	0.615813
	O10012	O	0.027579	0.153780	0.651882
	C10013	C	0.696626	0.634944	0.982138
	O10014	O	0.720030	0.638041	0.997989
	O10015	O	0.673203	0.631830	0.966253
	C10016	C	0.424489	0.106719	0.427425
	O10017	O	0.404227	0.093790	0.392250
	O10018	O	0.444717	0.119630	0.462565
	C10019	C	0.688865	0.641012	0.726220
	O10020	O	0.677114	0.645623	0.737497
	O10021	O	0.700616	0.636411	0.714942
	C10022	C	0.247497	0.410168	0.918115
	O10023	O	0.258180	0.418041	0.947273
	O10024	O	0.236811	0.402286	0.888923
	C10025	C	0.430656	0.563393	0.881772
	O10026	O	0.457622	0.581881	0.918047
	O10027	O	0.403655	0.544887	0.845462
	C10028	C	0.474817	0.310234	0.719652
	O10029	O	0.458395	0.310841	0.702632
	O10030	O	0.491240	0.309627	0.736672
	C10031	C	0.525025	0.360926	0.415322
	O10032	O	0.522805	0.369904	0.410405
	O10033	O	0.527248	0.351955	0.420273
	C10034	C	0.619488	0.400782	0.004504
	O10035	O	0.615212	0.415440	0.013891
	O10036	O	0.623779	0.386135	-0.004882
	C10037	C	0.835789	0.151535	0.705280
	O10038	O	0.844273	0.139284	0.692489
	O10039	O	0.827286	0.163769	0.718036
	C10040	C	0.600751	0.359534	0.577372
	O10041	O	0.583988	0.335842	0.541888
	O10042	O	0.617530	0.383236	0.612856
	C10043	C	0.626420	0.015527	0.343872
	O10044	O	0.631487	0.011020	0.325855
	O10045	O	0.621354	0.020045	0.361889
	C10046	C	0.191094	0.745488	0.824523
	O10047	O	0.211418	0.759453	0.837657
	O10048	O	0.170767	0.731505	0.811354
	C10049	C	0.536623	0.367891	0.681761
	O10050	O	0.545676	0.380967	0.686197
	O10051	O	0.527588	0.354832	0.677360
	C10052	C	0.892948	0.955675	0.316846
	O10053	O	0.910793	0.956047	0.315540
	O10054	O	0.875136	0.955322	0.318187
	C10055	C	0.942915	0.265175	0.660271
	O10056	O	0.964512	0.265992	0.667698
	O10057	O	0.921335	0.264367	0.652879
	C10058	C	0.948720	0.272460	0.422061
	O10059	O	0.928785	0.273816	0.417625
	O10060	O	0.968637	0.271096	0.426462
	C10061	C	0.431921	0.685575	0.385580
	O10062	O	0.420096	0.676730	0.385717
	O10063	O	0.443763	0.694447	0.385476
	C10064	C	0.294494	0.770739	0.875239
	O10065	O	0.273582	0.761261	0.844121
	O10066	O	0.315421	0.780217	0.906356
	C10067	C	0.903393	0.980413	0.406210
	O10068	O	0.893750	0.964044	0.395792
	O10069	O	0.913039	0.996790	0.416662
	C10070	C	0.431357	0.353128	0.122337
	O10071	O	0.404932	0.343071	0.095243
	O10072	O	0.457781	0.363194	0.149432
	C10073	C	0.904242	0.862042	0.216755
	O10074	O	0.879505	0.855422	0.203071
	O10075	O	0.928978	0.868651	0.230440
	C10076	C	0.457257	0.736290	0.601682
	O10077	O	0.466745	0.756919	0.635756
	O10078	O	0.447786	0.715670	0.567607
	C10079	C	0.016767	0.113744	0.906941
	O10080	O	0.013761	0.103761	0.909451
	O10081	O	0.019738	0.123700	0.904396
	C10082	C	0.202245	0.423525	0.747434
	O10083	O	0.174505	0.405255	0.716076
	O10084	O	0.229967	0.441766	0.778758
	C10085	C	0.523961	0.679774	0.154968
	O10086	O	0.527868	0.679585	0.173191
	O10087	O	0.520055	0.679953	0.136744
	C10088	C	0.049313	0.231762	0.466003
	O10089	O	0.027032	0.225477	0.457785
	O10090	O	0.071592	0.238038	0.474187
	C10091	C	0.932162	0.766256	0.401671
	O10092	O	0.953510	0.770949	0.407551
	O10093	O	0.910831	0.761591	0.395826
	C10094	C	0.752334	0.540821	0.258428
	O10095	O	0.740501	0.537528	0.234360
	O10096	O	0.764183	0.544113	0.282497
	C10097	C	0.083193	0.004280	0.941634
	O10098	O	0.090222	0.015958	0.943044
	O10099	O	0.076179	-0.007388	0.940224
	C10100	C	0.537135	0.872093	0.430622
	O10101	O	0.550546	0.890662	0.446680
	O10102	O	0.523726	0.853532	0.414599
	C10103	C	0.941586	0.762013	0.155862
	O10104	O	0.964727	0.766530	0.165420
	O10105	O	0.918426	0.757488	0.146269
	C10106	C	0.752206	0.124784	0.377706
	O10107	O	0.730714	0.121910	0.357935
	O10108	O	0.773731	0.127677	0.397511
	C10109	C	0.586299	0.733290	0.172435
	O10110	O	0.596677	0.730240	0.187116
	O10111	O	0.575902	0.736323	0.157718
	C10112	C	0.331869	0.534983	0.011966
	O10113	O	0.316703	0.520335	0.001925
	O10114	O	0.347018	0.549612	0.021971
	C10115	C	0.007405	0.940082	0.411127
	O10116	O	0.026972	0.942065	0.431035
	O10117	O	-0.012178	0.938088	0.391218
	C10118	C	0.760419	0.050822	0.030773
	O10119	O	0.771733	0.049755	0.048584
	O10120	O	0.749103	0.051870	0.012928
	C10121	C	0.413013	0.536500	0.181821
	O10122	O	0.415419	0.550628	0.210566
	O10123	O	0.410607	0.522373	0.153077
	C10124	C	0.358867	0.520915	0.845806
	O10125	O	0.333926	0.498729	0.809153
	O10126	O	0.383806	0.543083	0.882425
	C10127	C	0.985957	0.465290	0.883766
	O10128	O	0.974130	0.464318	0.862895
	O10129	O	0.997783	0.466271	0.904637
	C10130	C	0.565396	0.652052	0.499665
	O10131	O	0.539199	0.644233	0.479241
	O10132	O	0.591611	0.659889	0.520123
	C10133	C	0.979801	0.076148	0.063335
	O10134	O	0.973180	0.081489	0.080527
	O10135	O	0.986438	0.070808	0.046143
	C10136	C	0.245810	0.865522	0.742930
	O10137	O	0.241128	0.877914	0.745612
	O10138	O	0.250476	0.853130	0.740248
	C10139	C	0.054896	0.726109	0.206646
	O10140	O	0.032772	0.724406	0.198463
	O10141	O	0.077019	0.727802	0.214830
	C10142	C	0.749187	0.542584	0.613750
	O10143	O	0.759340	0.545653	0.637372
	O10144	O	0.739001	0.539497	0.590094
	C10145	C	0.091254	0.613513	0.628604
	O10146	O	0.063876	0.595613	0.599550
	O10147	O	0.118648	0.631412	0.657658
	C10148	C	0.988540	0.626690	0.621624
	O10149	O	1.007549	0.634514	0.626507
	O10150	O	0.969546	0.618877	0.616742
	C10151	C	0.819443	0.238551	0.037581
	O10152	O	0.847617	0.253828	0.066705
	O10153	O	0.791235	0.223265	0.008424
	C10154	C	0.059149	0.077448	0.253512
	O10155	O	0.077828	0.087076	0.259873
	O10156	O	0.040471	0.067810	0.247151
	C10157	C	0.048134	0.952775	0.935101
	O10158	O	0.061339	0.947625	0.944625
	O10159	O	0.034947	0.957943	0.925611
	C10160	C	0.737157	0.089006	0.949542
	O10161	O	0.744664	0.089022	0.968831
	O10162	O	0.729668	0.088998	0.930287
	C10163	C	0.241986	0.451673	0.093455
	O10164	O	0.254351	0.450779	0.111403
	O10165	O	0.229637	0.452568	0.075507
	C10166	C	0.454538	0.668573	0.867468
	O10167	O	0.430526	0.663334	0.855640
	O10168	O	0.478568	0.673831	0.879330
	C10169	C	0.442618	0.509846	0.408342
	O10170	O	0.459371	0.506067	0.417591
	O10171	O	0.425865	0.513625	0.399092
	C10172	C	0.006827	0.934031	0.160297
	O10173	O	-0.014954	0.930057	0.138498
	O10174	O	0.028608	0.938005	0.182096
	C10175	C	0.795441	0.521623	0.867709
	O10176	O	0.767809	0.504410	0.833359
	O10177	O	0.823107	0.538843	0.902092
	C10178	C	0.301525	0.811187	0.636787
	O10179	O	0.327274	0.832773	0.672753
	O10180	O	0.275775	0.789591	0.600822
	C10181	C	0.902139	0.758184	0.825520
	O10182	O	0.906795	0.763338	0.816752
	O10183	O	0.897465	0.753013	0.834253
	C10184	C	0.508310	0.645250	0.816546
	O10185	O	0.523230	0.640833	0.826379
	O10186	O	0.493389	0.649657	0.806712
	C10187	C	0.898633	0.891940	0.048000
	O10188	O	0.901085	0.902075	0.045627
	O10189	O	0.896165	0.881804	0.050372
	C10190	C	0.834394	0.290665	0.503172
	O10191	O	0.848291	0.306266	0.514003
	O10192	O	0.820481	0.275053	0.492341
	C10193	C	0.582510	0.476908	0.525315
	O10194	O	0.561774	0.467069	0.516513
	O10195	O	0.603265	0.486765	0.534152
	C10196	C	0.521929	0.867214	0.622277
	O10197	O	0.509002	0.874527	0.631217
	O10198	O	0.534872	0.859901	0.613338
	C10199	C	0.655579	0.065609	0.626128
	O10200	O	0.675675	0.088954	0.657968
	O10201	O	0.635518	0.042292	0.594323
	C10202	C	0.234315	0.455583	0.607767
	O10203	O	0.243302	0.447621	0.613441
	O10204	O	0.225329	0.463545	0.602094
	C10205	C	0.622851	0.444046	0.795640
	O10206	O	0.606366	0.449254	0.791205
	O10207	O	0.639319	0.438839	0.800076
	C10208	C	0.666016	0.957270	0.618220
	O10209	O	0.656399	0.939857	0.605704
	O10210	O	0.675652	0.974711	0.630770
	C10211	C	0.608425	0.894636	0.741176
	O10212	O	0.600090	0.903575	0.737394
	O10213	O	0.616777	0.885698	0.744959
	C10214	C	0.943003	0.594723	0.619217
	O10215	O	0.920011	0.582272	0.585246
	O10216	O	0.966013	0.607203	0.653223
	C10217	C	0.161182	0.197704	0.091426
	O10218	O	0.170619	0.193344	0.077535
	O10219	O	0.151711	0.202036	0.105283
	C10220	C	0.265816	0.804506	0.296010
	O10221	O	0.261825	0.797813	0.303059
	O10222	O	0.269840	0.811206	0.288996
	C10223	C	0.588952	0.840035	0.788248
	O10224	O	0.591507	0.842884	0.775698
	O10225	O	0.586414	0.837204	0.800832
	C10226	C	0.953787	0.775052	0.665738
	O10227	O	0.931941	0.769327	0.658552
	O10228	O	0.975652	0.780796	0.672959
	C10229	C	0.668598	0.471822	0.124744
	O10230	O	0.679481	0.463532	0.112297
	O10231	O	0.657731	0.480113	0.137191
	C10232	C	0.422188	0.063724	0.710506
	O10233	O	0.427460	0.074264	0.709543
	O10234	O	0.416915	0.053174	0.711469
	C10235	C	0.050245	0.172576	0.941359
	O10236	O	0.073958	0.177788	0.952327
	O10237	O	0.026533	0.167364	0.930390
	C10238	C	0.295249	0.768110	0.372376
	O10239	O	0.272732	0.755519	0.338061
	O10240	O	0.317763	0.780673	0.406657
	C10241	C	0.585418	0.854501	0.308285
	O10242	O	0.590777	0.870460	0.339849
	O10243	O	0.580061	0.838549	0.276755
	C10244	C	0.232828	0.441200	0.010074
	O10245	O	0.254411	0.461731	0.049994
	O10246	O	0.211279	0.420688	-0.029811
	C10247	C	0.761633	0.115899	0.240205
	O10248	O	0.747942	0.111690	0.214899
	O10249	O	0.775325	0.120098	0.265511
	C10250	C	0.425902	0.569372	0.722265
	O10251	O	0.429743	0.570938	0.708890
	O10252	O	0.422042	0.567789	0.735606
	C10253	C	0.915132	0.776003	0.096103
	O10254	O	0.890712	0.757125	0.057352
	O10255	O	0.939587	0.794898	0.134888
	C10256	C	0.475015	0.138668	0.723022
	O10257	O	0.490250	0.149471	0.727732
	O10258	O	0.459779	0.127865	0.718311
	C10259	C	0.392748	0.195570	0.327609
	O10260	O	0.406816	0.188240	0.329534
	O10261	O	0.378695	0.202890	0.325683
	C10262	C	0.427706	0.568911	0.474805
	O10263	O	0.420320	0.557946	0.474358
	O10264	O	0.435077	0.579877	0.475252
	C10265	C	0.515343	0.280259	0.492823
	O10266	O	0.541459	0.288127	0.514897
	O10267	O	0.489226	0.272391	0.470748
	C10268	C	0.361004	0.482930	0.033112
	O10269	O	0.340841	0.470697	0.022315
	O10270	O	0.381201	0.495172	0.043942
	C10271	C	0.561910	0.958776	0.740695
	O10272	O	0.573646	0.970651	0.773772
	O10273	O	0.550208	0.946919	0.707652
	C10274	C	0.920212	0.818604	0.464181
	O10275	O	0.929002	0.817967	0.482679
	O10276	O	0.911422	0.819252	0.445682
	C10277	C	0.452790	0.024716	0.927365
	O10278	O	0.474818	0.029492	0.934516
	O10279	O	0.430746	0.019931	0.920213
	C10280	C	0.252619	0.519422	0.985714
	O10281	O	0.238550	0.509250	0.982654
	O10282	O	0.266672	0.529605	0.988774
	C10283	C	0.607550	0.291053	0.500937
	O10284	O	0.593395	0.287676	0.504960
	O10285	O	0.621706	0.294458	0.496949
	C10286	C	0.222834	0.951410	0.078567
	O10287	O	0.227515	0.956655	0.069937
	O10288	O	0.218172	0.946182	0.087232
	C10289	C	0.875511	0.334514	0.358038
	O10290	O	0.886406	0.330132	0.370244
	O10291	O	0.864635	0.338914	0.345866
	C10292	C	0.521730	0.904364	0.161913
	O10293	O	0.524235	0.913856	0.188732
	O10294	O	0.519225	0.894872	0.135094
	C10295	C	0.543897	0.879180	0.940258
	O10296	O	0.529265	0.864039	0.929771
	O10297	O	0.558528	0.894321	0.950746
	C10298	C	0.610554	0.275934	0.245569
	O10299	O	0.620090	0.273526	0.261385
	O10300	O	0.601002	0.278352	0.229752
	C10301	C	0.265118	0.318748	0.063335
	O10302	O	0.256847	0.316333	0.073066
	O10303	O	0.273386	0.321144	0.053570
	C10304	C	0.261252	0.301205	0.792993
	O10305	O	0.260969	0.299112	0.807434
	O10306	O	0.261553	0.303316	0.778586
	C10307	C	0.894930	0.748889	0.542679
	O10308	O	0.917848	0.771435	0.581464
	O10309	O	0.872029	0.726333	0.503894
	C10310	C	0.240438	0.930675	0.448743
	O10311	O	0.247839	0.917470	0.435470
	O10312	O	0.233022	0.943879	0.462015
	C10313	C	0.455835	0.241836	0.357110
	O10314	O	0.445730	0.219828	0.324411
	O10315	O	0.465937	0.263826	0.389774
	C10316	C	0.037924	0.018046	0.647343
	O10317	O	0.012017	0.009775	0.630186
	O10318	O	0.063796	0.026289	0.664466
	C10319	C	0.472682	0.250336	0.239896
	O10320	O	0.444947	0.232453	0.209603
	O10321	O	0.500398	0.268202	0.270153
	C10322	C	0.086382	0.725111	0.474874
	O10323	O	0.082544	0.724355	0.489109
	O10324	O	0.090219	0.725867	0.460639
	C10325	C	0.353208	0.575045	0.575550
	O10326	O	0.355948	0.592233	0.587653
	O10327	O	0.350470	0.557885	0.563481
	C10328	C	0.126908	0.783303	0.601131
	O10329	O	0.141029	0.794875	0.606048
	O10330	O	0.112806	0.771758	0.596249
	C10331	C	0.745017	0.981423	0.891881
	O10332	O	0.751930	0.989783	0.888373
	O10333	O	0.738087	0.973063	0.895388
	C10334	C	0.999767	0.571306	0.229512
	O10335	O	0.978569	0.566906	0.206337
	O10336	O	1.020981	0.575697	0.252686
	C10337	C	0.222034	0.232143	0.902746
	O10338	O	0.213540	0.244634	0.912133
	O10339	O	0.230528	0.219642	0.893359
	C10340	C	0.896230	0.957591	0.071346
	O10341	O	0.883740	0.963899	0.081627
	O10342	O	0.908686	0.951266	0.061031
	C10343	C	0.047057	0.125723	0.184400
	O10344	O	0.034878	0.112206	0.177833
	O10345	O	0.059255	0.139258	0.191002
	C10346	C	0.143028	0.170775	0.286417
	O10347	O	0.160208	0.193950	0.315952
	O10348	O	0.125832	0.147589	0.256881
	C10349	C	0.055359	0.984000	0.427115
	O10350	O	0.058404	0.995257	0.426737
	O10351	O	0.052299	0.972754	0.427493
	C10352	C	0.851693	0.770296	0.501900
	O10353	O	0.869330	0.766573	0.501762
	O10354	O	0.834040	0.774018	0.502037
	C10355	C	0.940115	0.598234	0.125776
	O10356	O	0.967457	0.609060	0.151117
	O10357	O	0.912789	0.587407	0.100435
	C10358	C	0.545852	0.151082	0.251620
	O10359	O	0.572308	0.168398	0.288033
	O10360	O	0.519362	0.133758	0.215174
	C10361	C	0.767566	0.774544	0.493820
	O10362	O	0.768071	0.768067	0.502588
	O10363	O	0.767079	0.781030	0.485086
	C10364	C	0.937782	0.100083	0.620077
	O10365	O	0.963890	0.112370	0.651504
	O10366	O	0.911655	0.087778	0.588616
	C10367	C	0.227608	0.908351	0.678392
	O10368	O	0.236920	0.897484	0.664948
	O10369	O	0.218297	0.919228	0.691836
	C10370	C	0.005063	0.435284	0.404766
	O10371	O	0.026684	0.436585	0.420135
	O10372	O	-0.016559	0.433984	0.389396
	C10373	C	0.425457	0.295855	0.950746
	O10374	O	0.430404	0.281303	0.940637
	O10375	O	0.420509	0.310398	0.960854
	C10376	C	0.524708	0.792831	0.280537
	O10377	O	0.510190	0.785701	0.280675
	O10378	O	0.539243	0.799969	0.280434
	C10379	C	0.581409	0.934054	0.911892
	O10380	O	0.580826	0.929291	0.922792
	O10381	O	0.582010	0.938835	0.901027
	C10382	C	0.200266	0.485815	0.996098
	O10383	O	0.179963	0.471852	0.959960
	O10384	O	0.220569	0.499788	1.032235
	C10385	C	0.340771	0.519889	0.739973
	O10386	O	0.337006	0.535677	0.755102
	O10387	O	0.344571	0.504118	0.724879
	C10388	C	0.251374	0.729292	0.138979
	O10389	O	0.263598	0.741899	0.144206
	O10390	O	0.239117	0.716668	0.133718
	C10391	C	0.104073	0.607483	0.579607
	O10392	O	0.096285	0.590600	0.568570
	O10393	O	0.111845	0.624355	0.590644
	C10394	C	0.393682	0.621383	0.247460
	O10395	O	0.397141	0.628606	0.273179
	O10396	O	0.390223	0.614150	0.221741
	C10397	C	0.745848	0.670918	0.434336
	O10398	O	0.750644	0.662739	0.414049
	O10399	O	0.741067	0.679097	0.454622
	C10400	C	0.321724	0.517381	0.310554
	O10401	O	0.338575	0.535714	0.327849
	O10402	O	0.304872	0.499021	0.293225
	C10403	C	0.956263	0.282687	0.918803
	O10404	O	0.980586	0.287096	0.933210
	O10405	O	0.931975	0.278296	0.904431
	C10406	C	0.557373	0.296126	0.455516
	O10407	O	0.545091	0.275891	0.436055
	O10408	O	0.569689	0.316380	0.475012
	C10409	C	0.685053	0.099551	0.161019
	O10410	O	0.669726	0.078080	0.122853
	O10411	O	0.700378	0.120994	0.199151
	C10412	C	0.082668	0.181728	0.647068
	O10413	O	0.082331	0.173559	0.622552
	O10414	O	0.082986	0.189880	0.671549
	C10415	C	0.750442	0.538178	0.139908
	O10416	O	0.725674	0.532408	0.119277
	O10417	O	0.775225	0.543949	0.160538
	C10418	C	0.925665	0.828852	0.983238
	O10419	O	0.917941	0.821312	0.987433
	O10420	O	0.933423	0.836420	0.979078
	C10421	C	0.392577	0.659673	0.796500
	O10422	O	0.402768	0.681602	0.829508
	O10423	O	0.382386	0.637744	0.763492
	C10424	C	0.405624	0.164573	0.815583
	O10425	O	0.400627	0.168007	0.801520
	O10426	O	0.410623	0.161148	0.829680
	C10427	C	0.616357	0.876074	0.116389
	O10428	O	0.604495	0.857653	0.101191
	O10429	O	0.628218	0.894486	0.131587
	C10430	C	0.742487	0.194362	0.827789
	O10431	O	0.740483	0.201914	0.820465
	O10432	O	0.744475	0.186800	0.835113
	C10433	C	0.411643	0.155658	0.066361
	O10434	O	0.404297	0.159477	0.052710
	O10435	O	0.418989	0.151839	0.080011
	C10436	C	0.747119	0.184543	0.072240
	O10437	O	0.753994	0.180995	0.056389
	O10438	O	0.740211	0.188062	0.088057
	C10439	C	0.575015	0.942401	0.414187
	O10440	O	0.570854	0.946812	0.401671
	O10441	O	0.579176	0.937999	0.426703
	C10442	C	0.574271	0.927472	0.142211
	O10443	O	0.572175	0.934285	0.133684
	O10444	O	0.576367	0.920658	0.150738
	C10445	C	0.831597	0.758045	0.070762
	O10446	O	0.851627	0.776739	0.090979
	O10447	O	0.811550	0.739341	0.050544
	C10448	C	0.668718	0.959539	0.358348
	O10449	O	0.661580	0.940797	0.342978
	O10450	O	0.675874	0.978309	0.373752
	C10451	C	0.007855	0.469703	0.639401
	O10452	O	0.003544	0.459100	0.640570
	O10453	O	0.012148	0.480279	0.638197
	C10454	C	0.429105	0.570271	0.980866
	O10455	O	0.438806	0.579551	0.980006
	O10456	O	0.419419	0.560990	0.981725
	C10457	C	0.130359	0.155669	0.765864
	O10458	O	0.128974	0.170463	0.773188
	O10459	O	0.131760	0.140864	0.758540
	C10460	C	0.674576	0.172619	0.969175
	O10461	O	0.661637	0.157871	0.960270
	O10462	O	0.687498	0.187366	0.978081
	C10463	C	0.610055	0.789909	0.762632
	O10464	O	0.594921	0.794010	0.752214
	O10465	O	0.625171	0.785799	0.773016
	C10466	C	0.471007	0.852970	0.640879
	O10467	O	0.499218	0.868553	0.671068
	O10468	O	0.442813	0.837404	0.610724
	C10469	C	0.791835	0.023984	0.872144
	O10470	O	0.774848	0.009362	0.835629
	O10471	O	0.808856	0.038624	0.908694
	C10472	C	0.902718	0.954742	0.148572
	O10473	O	0.882754	0.951711	0.126945
	O10474	O	0.922682	0.957773	0.170200
	C10475	C	0.728565	0.724862	0.499768
	O10476	O	0.713239	0.717806	0.470851
	O10477	O	0.743907	0.731928	0.528685
	C10478	C	0.272541	0.804220	0.044733
	O10479	O	0.262674	0.790169	0.038372
	O10480	O	0.282408	0.818281	0.051094
	C10481	C	0.966446	0.068699	0.517132
	O10482	O	0.951012	0.067047	0.495745
	O10483	O	0.981881	0.070351	0.538519
	C10484	C	0.488180	0.179825	0.884866
	O10485	O	0.471836	0.173261	0.856603
	O10486	O	0.504523	0.186372	0.913095
	C10487	C	0.233836	0.446875	0.845806
	O10488	O	0.246877	0.446253	0.864064
	O10489	O	0.220779	0.447498	0.827548
	C10490	C	0.386996	0.716774	0.364296
	O10491	O	0.383131	0.721219	0.351883
	O10492	O	0.390844	0.712301	0.376674
	C10493	C	0.492056	0.813865	0.214692
	O10494	O	0.497332	0.807568	0.224285
	O10495	O	0.486795	0.820163	0.205099
	C10496	C	0.747272	0.701999	0.095518
	O10497	O	0.748274	0.700131	0.110716
	O10498	O	0.746253	0.703868	0.080320
	C10499	C	0.131582	0.676053	0.974539
	O10500	O	0.149611	0.672303	0.980384
	O10501	O	0.113572	0.679821	0.968728
	C10502	C	0.045741	0.521124	0.661097
	O10503	O	0.021238	0.516375	0.646346
	O10504	O	0.070245	0.525873	0.675847
	C10505	C	0.551174	0.981411	0.461189
	O10506	O	0.527243	0.977699	0.447195
	O10507	O	0.575086	0.985105	0.475149
	C10508	C	0.219541	0.231533	0.649888
	O10509	O	0.204903	0.238598	0.648512
	O10510	O	0.234179	0.224478	0.651263
	C10511	C	0.938331	0.504048	0.163357
	O10512	O	0.936978	0.500711	0.175839
	O10513	O	0.939668	0.507384	0.150876
	C10514	C	0.173511	0.869322	0.193649
	O10515	O	0.173133	0.881703	0.219472
	O10516	O	0.173889	0.856950	0.167827
	C10517	C	0.747006	0.686266	0.020527
	O10518	O	0.733767	0.663996	-0.004986
	O10519	O	0.760245	0.708526	0.046040
	C10520	C	0.453595	0.128400	0.189798
	O10521	O	0.441672	0.117406	0.187048
	O10522	O	0.465517	0.139386	0.192515
	C10523	C	0.044422	0.017886	0.404284
	O10524	O	0.071524	0.033384	0.429006
	O10525	O	0.017285	0.002369	0.379528
	C10526	C	0.317934	0.957526	0.756924
	O10527	O	0.343360	0.964158	0.777898
	O10528	O	0.292511	0.950912	0.735985
	C10529	C	0.196167	0.909092	0.483092
	O10530	O	0.217937	0.921272	0.495573
	O10531	O	0.174397	0.896922	0.470611
	C10532	C	0.750921	0.271832	0.737704
	O10533	O	0.758545	0.284629	0.741142
	O10534	O	0.743297	0.259035	0.734265
	C10535	C	0.486472	0.111813	0.250520
	O10536	O	0.480137	0.097722	0.218750
	O10537	O	0.492791	0.125895	0.282291
	C10538	C	0.787837	0.978345	0.864649
	O10539	O	0.783549	0.981367	0.850104
	O10540	O	0.792141	0.975313	0.879193
	C10541	C	0.295243	0.754214	0.118658
	O10542	O	0.280834	0.752033	0.096240
	O10543	O	0.309634	0.756386	0.141042
	C10544	C	0.166900	0.711324	0.125054
	O10545	O	0.153643	0.692085	0.107656
	O10546	O	0.180190	0.730571	0.142486
	C10547	C	0.887110	0.445063	0.347757
	O10548	O	0.897557	0.439920	0.334692
	O10549	O	0.876664	0.450216	0.360823
	C10550	C	0.486785	0.638949	0.472536
	O10551	O	0.486298	0.630825	0.478553
	O10552	O	0.487273	0.647082	0.466519
	C10553	C	0.997165	0.388913	0.465109
	O10554	O	1.002543	0.382970	0.475287
	O10555	O	0.991787	0.394865	0.454932
	C10556	C	0.777396	0.777750	0.751767
	O10557	O	0.782431	0.785805	0.747022
	O10558	O	0.772379	0.769722	0.756546
	C10559	C	0.579053	0.964623	0.021799
	O10560	O	0.553289	0.947289	-0.015301
	O10561	O	0.604802	0.981968	0.058899
	C10562	C	0.008279	0.609040	0.826689
	O10563	O	-0.009530	0.604098	0.800901
	O10564	O	0.026089	0.613982	0.852477
	C10565	C	0.222057	0.380542	0.990081
	O10566	O	0.205281	0.385559	0.985817
	O10567	O	0.238833	0.375536	0.994344
	C10568	C	0.944382	0.598507	0.372376
	O10569	O	0.972347	0.611674	0.399127
	O10570	O	0.916417	0.585350	0.345626
	C10571	C	0.756833	0.772977	0.244950
	O10572	O	0.764381	0.784241	0.245913
	O10573	O	0.749283	0.761704	0.243953
	C10574	C	0.242772	0.978068	0.752833
	O10575	O	0.255235	0.993938	0.788798
	O10576	O	0.230328	0.962217	0.716902
	C10577	C	0.994013	0.558699	0.958172
	O10578	O	0.975557	0.559856	0.944109
	O10579	O	1.012468	0.557553	0.972235
	C10580	C	0.860400	0.833593	0.606323
	O10581	O	0.861753	0.847871	0.611618
	O10582	O	0.859047	0.819326	0.601028
	C10583	C	0.690215	0.113879	0.444548
	O10584	O	0.708588	0.111414	0.444995
	O10585	O	0.671824	0.116326	0.444066
	C10586	C	0.743941	0.569292	0.108446
	O10587	O	0.761726	0.590330	0.147781
	O10588	O	0.726191	0.548262	0.069146
	C10589	C	0.006253	0.388239	0.532089
	O10590	O	0.000596	0.367424	0.506404
	O10591	O	0.011893	0.409046	0.557739
	C10592	C	0.174273	0.232007	0.400433
	O10593	O	0.158271	0.208896	0.371482
	O10594	O	0.190291	0.255109	0.429384
	C10595	C	0.494265	0.374928	0.865096
	O10596	O	0.484894	0.371094	0.872626
	O10597	O	0.503639	0.378789	0.857600
	C10598	C	0.089930	0.020305	0.768993
	O10599	O	0.074328	0.020925	0.773910
	O10600	O	0.105515	0.019695	0.764076
	C10601	C	0.190395	0.296436	0.378806
	O10602	O	0.172920	0.295689	0.359826
	O10603	O	0.207869	0.297155	0.397751
	C10604	C	0.651289	0.489772	0.048240
	O10605	O	0.635737	0.485842	0.023450
	O10606	O	0.666822	0.493674	0.072997
	C10607	C	0.877818	0.302204	0.375368
	O10608	O	0.851213	0.284928	0.339127
	O10609	O	0.904405	0.319453	0.411574
	C10610	C	0.967556	0.880656	0.701566
	O10611	O	0.948516	0.865775	0.688329
	O10612	O	0.986597	0.895538	0.714804
	C10613	C	0.775842	0.515914	0.372342
	O10614	O	0.781089	0.526223	0.401362
	O10615	O	0.770594	0.505595	0.343322
	C10616	C	0.252682	0.023888	0.991490
	O10617	O	0.240703	0.012101	0.987605
	O10618	O	0.264642	0.035656	0.995341
	C10619	C	0.532577	0.867127	0.172607
	O10620	O	0.538899	0.874002	0.166830
	O10621	O	0.526255	0.860262	0.178383
	C10622	C	0.042618	0.622069	0.428869
	O10623	O	0.026235	0.608221	0.419207
	O10624	O	0.058982	0.635889	0.438496
	C10625	C	0.111441	0.114733	0.094762
	O10626	O	0.121886	0.135772	0.116320
	O10627	O	0.101015	0.093722	0.073237
	C10628	C	0.239168	0.952947	0.351712
	O10629	O	0.250722	0.948972	0.364468
	O10630	O	0.227598	0.956922	0.338955
	C10631	C	0.901817	0.481390	0.859938
	O10632	O	0.918900	0.496542	0.872041
	O10633	O	0.884733	0.466228	0.847835
	C10634	C	0.470893	0.836289	0.021868
	O10635	O	0.474792	0.821404	0.012103
	O10636	O	0.466976	0.851155	0.031599
	C10637	C	0.643516	0.977446	0.868500
	O10638	O	0.657704	0.973447	0.860798
	O10639	O	0.629310	0.981427	0.876167
	C10640	C	0.260263	0.294967	0.523871
	O10641	O	0.259287	0.286520	0.529269
	O10642	O	0.261205	0.303405	0.518438
	C10643	C	0.739434	0.698357	0.593533
	O10644	O	0.748596	0.699799	0.614919
	O10645	O	0.730269	0.696898	0.572111
	C10646	C	0.582799	0.292532	0.004986
	O10647	O	0.577754	0.298022	0.023656
	O10648	O	0.587863	0.287070	-0.013650
	C10649	C	0.756529	0.122592	0.862929
	O10650	O	0.774763	0.120858	0.875789
	O10651	O	0.738329	0.124345	0.850104
	C10652	C	0.755647	0.478950	0.893221
	O10653	O	0.759417	0.485573	0.886001
	O10654	O	0.751860	0.472327	0.900442
	C10655	C	0.431911	0.158246	0.326027
	O10656	O	0.454091	0.181021	0.364846
	O10657	O	0.409766	0.135479	0.287242
	C10658	C	0.567708	0.782031	0.175426
	O10659	O	0.592896	0.794886	0.193409
	O10660	O	0.542538	0.769195	0.157478
	C10661	C	0.420092	0.066162	0.465487
	O10662	O	0.425566	0.072195	0.458232
	O10663	O	0.414600	0.060101	0.472708
	C10664	C	0.256008	0.279959	0.875308
	O10665	O	0.272668	0.286684	0.903743
	O10666	O	0.239348	0.273235	0.846872
	C10667	C	0.303763	0.256065	0.374267
	O10668	O	0.289785	0.249622	0.346141
	O10669	O	0.317759	0.262525	0.402428
	C10670	C	0.387280	0.202089	0.057833
	O10671	O	0.393486	0.193318	0.038854
	O10672	O	0.381040	0.210852	0.076779
	C10673	C	0.397260	0.103169	0.703698
	O10674	O	0.406332	0.123583	0.737532
	O10675	O	0.388207	0.082773	0.669899
	C10676	C	0.238498	0.953309	0.853439
	O10677	O	0.247064	0.949065	0.866333
	O10678	O	0.229914	0.957535	0.840511
	C10679	C	0.017628	0.610426	0.665223
	O10680	O	0.022572	0.608570	0.681521
	O10681	O	0.012682	0.612264	0.648890
	C10682	C	0.551750	0.481061	0.212526
	O10683	O	0.570709	0.478356	0.215896
	O10684	O	0.532773	0.483748	0.209122
	C10685	C	0.761122	0.168658	0.245053
	O10686	O	0.746577	0.146309	0.219197
	O10687	O	0.775684	0.191007	0.270910
	C10688	C	0.644564	0.477089	0.625819
	O10689	O	0.644414	0.494636	0.641704
	O10690	O	0.644730	0.459532	0.609934
	C10691	C	0.024728	0.913218	0.348308
	O10692	O	0.039981	0.912987	0.366565
	O10693	O	0.009458	0.913442	0.330015
	C10694	C	0.281083	0.302641	0.399883
	O10695	O	0.268929	0.307578	0.389259
	O10696	O	0.293204	0.297686	0.410473
	C10697	C	0.655679	0.477684	0.779377
	O10698	O	0.630280	0.455806	0.743102
	O10699	O	0.681062	0.499563	0.815652
	C10700	C	0.769909	0.109483	0.485980
	O10701	O	0.769563	0.098810	0.460089
	O10702	O	0.770240	0.120155	0.511871
	C10703	C	0.570064	0.433097	0.650438
	O10704	O	0.578980	0.441158	0.647549
	O10705	O	0.561165	0.425036	0.653326
	C10706	C	0.451044	0.742751	0.357454
	O10707	O	0.457249	0.758253	0.389602
	O10708	O	0.444857	0.727266	0.325339
	C10709	C	0.306563	0.870307	0.909898
	O10710	O	0.328685	0.871744	0.918494
	O10711	O	0.284440	0.868843	0.901267
	C10712	C	0.830482	0.093920	0.410989
	O10713	O	0.831138	0.091007	0.424743
	O10714	O	0.829861	0.096851	0.397270
	C10715	C	0.559501	0.486448	0.723056
	O10716	O	0.534774	0.480769	0.702563
	O10717	O	0.584244	0.492117	0.743549
	C10718	C	0.913491	0.817531	0.218681
	O10719	O	0.923970	0.815291	0.234704
	O10720	O	0.902977	0.819744	0.202624
	C10721	C	0.985646	0.065597	0.466519
	O10722	O	0.971351	0.062211	0.442347
	O10723	O	0.999922	0.068965	0.490656
	C10724	C	0.741607	0.702389	0.347070
	O10725	O	0.736901	0.702171	0.328124
	O10726	O	0.746316	0.702624	0.366050
	C10727	C	0.911829	0.908845	0.836695
	O10728	O	0.913704	0.910091	0.855881
	O10729	O	0.909973	0.907627	0.817543
	C10730	C	0.013876	0.636643	0.925061
	O10731	O	0.021462	0.648446	0.926883
	O10732	O	0.006274	0.624850	0.923238
	C10733	C	0.266180	0.808201	0.858288
	O10734	O	0.239991	0.787193	0.824660
	O10735	O	0.292370	0.829217	0.891949
	C10736	C	0.826986	0.785917	0.000722
	O10737	O	0.816301	0.772105	-0.005605
	O10738	O	0.837686	0.799740	0.007049
	C10739	C	0.724909	0.696823	0.519573
	O10740	O	0.696771	0.680372	0.488009
	O10741	O	0.753047	0.713284	0.551137
	C10742	C	0.055392	0.232967	0.961851
	O10743	O	0.036263	0.235310	0.953118
	O10744	O	0.074518	0.230616	0.970551
	C10745	C	0.163313	0.776792	0.109340
	O10746	O	0.190323	0.793500	0.135438
	O10747	O	0.136288	0.760085	0.083243
	C10748	C	0.862489	0.835331	0.852924
	O10749	O	0.848092	0.813790	0.829577
	O10750	O	0.876870	0.856861	0.876270
	C10751	C	0.762007	0.776527	0.992040
	O10752	O	0.769156	0.787414	0.992281
	O10753	O	0.754840	0.765621	0.991765
	C10754	C	0.101381	0.116955	0.595939
	O10755	O	0.077363	0.094253	0.558874
	O10756	O	0.125365	0.139649	0.632971
	C10757	C	0.506432	0.812127	0.806093
	O10758	O	0.503765	0.827619	0.816580
	O10759	O	0.509118	0.796662	0.795640
	C10760	C	0.950617	0.867155	0.192515
	O10761	O	0.966061	0.866800	0.210497
	O10762	O	0.935156	0.867482	0.174498
	C10763	C	0.053946	0.530642	0.783125
	O10764	O	0.071209	0.546944	0.820844
	O10765	O	0.036682	0.514339	0.745406
	C10766	C	0.419627	0.053916	0.120446
	O10767	O	0.406985	0.062197	0.128974
	O10768	O	0.432269	0.045635	0.111919
	C10769	C	0.971807	0.968941	0.439734
	O10770	O	0.957311	0.948660	0.419551
	O10771	O	0.986302	0.989204	0.459883
	C10772	C	0.083191	0.035013	0.543470
	O10773	O	0.086683	0.046975	0.572352
	O10774	O	0.079699	0.023040	0.514587
	C10775	C	0.075791	0.523000	0.539069
	O10776	O	0.092423	0.546497	0.575447
	O10777	O	0.059141	0.499514	0.502691
	C10778	C	0.113936	0.217482	0.252549
	O10779	O	0.097686	0.197815	0.213764
	O10780	O	0.130184	0.237132	0.291299
	C10781	C	0.209980	0.383214	0.443138
	O10782	O	0.226253	0.402256	0.461465
	O10783	O	0.193709	0.364191	0.424846
	C10784	C	0.250269	0.401239	0.776420
	O10785	O	0.254931	0.416618	0.784019
	O10786	O	0.245573	0.385832	0.768787
	C10787	C	0.225820	0.972393	0.993416
	O10788	O	0.213923	0.954573	0.957038
	O10789	O	0.237736	0.990221	1.029828
	C10790	C	0.615305	0.911011	0.201867
	O10791	O	0.606817	0.916726	0.217374
	O10792	O	0.623793	0.905296	0.186360
	C10793	C	0.757459	0.057241	0.304606
	O10794	O	0.751048	0.046485	0.304846
	O10795	O	0.763871	0.067988	0.304365
	C10796	C	0.342749	0.041348	0.503619
	O10797	O	0.345068	0.058364	0.515413
	O10798	O	0.340448	0.024349	0.491860
	C10799	C	0.766584	0.057531	0.387711
	O10800	O	0.777238	0.053669	0.400915
	O10801	O	0.755949	0.061421	0.374542
	C10802	C	0.843820	0.203236	0.512284
	O10803	O	0.836404	0.190090	0.508330
	O10804	O	0.851254	0.216400	0.516272
	C10805	C	0.997396	0.544058	0.765417
	O10806	O	0.981941	0.545779	0.750013
	O10807	O	1.012835	0.542348	0.780821
	C10808	C	0.537937	0.188316	0.350611
	O10809	O	0.547248	0.206767	0.385373
	O10810	O	0.528607	0.169847	0.315815
	C10811	C	0.017775	0.501489	0.244503
	O10812	O	0.012230	0.510572	0.264274
	O10813	O	0.023317	0.492398	0.224698
	C10814	C	0.278140	0.522634	0.736603
	O10815	O	0.273368	0.537544	0.748397
	O10816	O	0.282927	0.507713	0.724810
	C10817	C	0.810359	0.095185	0.888923
	O10818	O	0.788536	0.083997	0.877439
	O10819	O	0.832216	0.106381	0.900442
	C10820	C	0.550436	0.146063	0.491653
	O10821	O	0.529963	0.133575	0.456960
	O10822	O	0.570875	0.158522	0.526312
	C10823	C	0.258183	0.372257	0.507401
	O10824	O	0.281960	0.382057	0.537521
	O10825	O	0.234440	0.362465	0.477315
	C10826	C	0.260886	0.939062	0.213626
	O10827	O	0.264717	0.939734	0.199288
	O10828	O	0.257055	0.938400	0.227964
	C10829	C	0.065704	0.898957	0.746265
	O10830	O	0.093176	0.911605	0.769715
	O10831	O	0.038199	0.886291	0.722781
	C10832	C	0.745604	0.679511	0.691767
	O10833	O	0.733278	0.679564	0.700191
	O10834	O	0.757930	0.679448	0.683343
	C10835	C	0.937290	0.329554	0.487802
	O10836	O	0.943785	0.336117	0.481717
	O10837	O	0.930812	0.323018	0.493923
	C10838	C	0.885361	0.350239	0.197604
	O10839	O	0.895496	0.339560	0.186154
	O10840	O	0.875243	0.360926	0.209088
	C10841	C	0.662944	0.458573	0.874585
	O10842	O	0.660129	0.441326	0.862310
	O10843	O	0.665741	0.475813	0.886826
	C10844	C	0.247444	0.869365	0.258428
	O10845	O	0.226708	0.865447	0.235735
	O10846	O	0.268163	0.873284	0.281122
	C10847	C	0.055966	0.133165	0.448639
	O10848	O	0.072811	0.148785	0.461293
	O10849	O	0.039140	0.117563	0.436021
	C10850	C	0.554198	0.879213	0.361408
	O10851	O	0.569555	0.887608	0.391872
	O10852	O	0.538876	0.870836	0.330978
	C10853	C	0.020421	0.158700	0.171059
	O10854	O	0.002543	0.134896	0.135438
	O10855	O	0.038300	0.182504	0.206681
	C10856	C	0.433424	0.841249	0.859594
	O10857	O	0.458973	0.849128	0.883938
	O10858	O	0.407909	0.833388	0.835285
	C10859	C	0.131236	0.270359	0.571836
	O10860	O	0.139097	0.276079	0.565441
	O10861	O	0.123356	0.264632	0.578197
	C10862	C	0.361475	0.045687	0.857669
	O10863	O	0.347298	0.022464	0.827927
	O10864	O	0.375637	0.068910	0.887411
	C10865	C	0.296920	0.305273	0.111954
	O10866	O	0.274610	0.285689	0.072309
	O10867	O	0.319230	0.324858	0.151598
	C10868	C	0.335887	0.539217	0.245706
	O10869	O	0.339074	0.549526	0.243781
	O10870	O	0.332681	0.528890	0.247597
	C10871	C	0.835337	0.765317	0.574450
	O10872	O	0.807923	0.749221	0.540375
	O10873	O	0.862750	0.781423	0.608524
	C10874	C	0.465827	0.623365	0.197672
	O10875	O	0.454200	0.605589	0.183884
	O10876	O	0.477487	0.641149	0.211495
	C10877	C	0.561037	0.449400	0.230887
	O10878	O	0.534682	0.440033	0.205134
	O10879	O	0.587374	0.458739	0.256606
	C10880	C	0.961503	0.955548	0.674541
	O10881	O	0.939089	0.941226	0.658724
	O10882	O	0.983916	0.969869	0.690357
	C10883	C	0.045629	0.575565	0.309557
	O10884	O	0.070597	0.597780	0.345901
	O10885	O	0.020680	0.553358	0.273248
	C10886	C	0.901064	0.389327	0.803411
	O10887	O	0.918464	0.408931	0.842574
	O10888	O	0.883699	0.369731	0.764282
	C10889	C	0.667500	0.570628	0.397236
	O10890	O	0.683004	0.593463	0.424983
	O10891	O	0.652013	0.547812	0.369522
