data_Molecule from CHK

_cell_length_a		50.746368
_cell_length_b		51.834584
_cell_length_c		30.386507
_cell_angle_alpha	71.338796
_cell_angle_beta	109.867984
_cell_angle_gamma	120.408301
_symmetry_space_group_name_H-M	'P 1'
_symmetry_Int_Tables_number		1

loop_
	_symmetry_equiv_pos_as_xyz
	x,y,z

loop_
	_atom_site_label
	_atom_site_type_symbol
	_atom_site_fract_x
	_atom_site_fract_y
	_atom_site_fract_z
	C0	C	0.003698	0.080328	-0.143552
	C1	C	-0.024004	0.064641	-0.127602
	C2	C	-0.035428	0.033351	-0.109623
	C3	C	-0.018898	0.018195	-0.107518
	C4	C	0.008986	0.034089	-0.123668
	C5	C	0.020182	0.064982	-0.141824
	C6	C	-0.035055	0.087379	-0.130969
	C7	C	0.010625	0.113273	-0.159578
	N8	N	-0.012557	0.116295	-0.148790
	O9	O	0.030767	0.133950	-0.178874
	O10	O	-0.057895	0.083608	-0.121282
	C11	C	-0.036745	-0.014883	-0.087839
	C12	C	-0.063283	0.010813	-0.088003
	N13	N	-0.063035	-0.017876	-0.076386
	O14	O	-0.082277	0.014834	-0.079837
	O15	O	-0.031328	-0.035728	-0.083023
	C16	C	0.051302	0.076158	-0.153095
	C17	C	0.032759	0.024498	-0.121831
	N18	N	0.057472	0.050649	-0.140431
	O19	O	0.032082	-0.000168	-0.107387
	O20	O	0.068518	0.101267	-0.169305
	F21	F	-0.048154	0.193425	-0.208232
	C22	C	-0.028593	0.182794	-0.176923
	C23	C	-0.030634	0.155557	-0.179501
	F24	F	-0.052375	0.139811	-0.212988
	C25	C	-0.010074	0.144374	-0.147287
	C26	C	0.013041	0.161401	-0.113001
	F27	F	0.033353	0.151332	-0.082619
	C28	C	0.014969	0.188541	-0.110316
	F29	F	0.037288	0.204770	-0.077766
	C30	C	-0.006397	0.199125	-0.141468
	F31	F	0.832650	0.900989	-0.080903
	C32	C	0.861840	0.914938	-0.056600
	C33	C	0.884158	0.940174	-0.079516
	F34	F	0.876289	0.950686	-0.125711
	C35	C	0.914870	0.954887	-0.054582
	C36	C	0.923139	0.942467	-0.007012
	F37	F	0.952754	0.954631	0.016973
	C38	C	0.900827	0.917525	0.015994
	F39	F	0.909243	0.906486	0.061812
	C40	C	0.869742	0.903899	-0.008165
	F41	F	0.154238	0.053182	-0.041879
	C42	C	0.135735	0.053712	-0.085252
	C43	C	0.106557	0.051786	-0.091130
	F44	F	0.097199	0.049531	-0.053410
	C45	C	0.086939	0.052521	-0.136150
	C46	C	0.097311	0.055316	-0.175272
	F47	F	0.079291	0.056981	-0.218764
	C48	C	0.126397	0.056722	-0.169256
	F49	F	0.135866	0.058896	-0.206748
	C50	C	0.146046	0.056217	-0.124192
	C51	C	0.026797	0.303124	-0.113552
	C52	C	0.015926	0.313866	-0.090502
	C53	C	-0.012020	0.294582	-0.074759
	C54	C	-0.028079	0.264585	-0.081099
	C55	C	-0.017314	0.253934	-0.104860
	C56	C	0.009918	0.273185	-0.121524
	C57	C	0.040235	0.345623	-0.083697
	C58	C	0.058432	0.327319	-0.121715
	N59	N	0.065708	0.351914	-0.101668
	O60	O	0.075727	0.326908	-0.139948
	O61	O	0.039856	0.363102	-0.066302
	C62	C	-0.056115	0.248836	-0.059423
	C63	C	-0.029097	0.298898	-0.047734
	N64	N	-0.055393	0.270444	-0.039581
	O65	O	-0.023162	0.321215	-0.035038
	O66	O	-0.075939	0.222990	-0.058277
	C67	C	0.016374	0.255205	-0.143339
	C68	C	-0.027777	0.222452	-0.111535
	N69	N	-0.006803	0.224662	-0.135035
	O70	O	-0.048511	0.198878	-0.098122
	O71	O	0.036389	0.263367	-0.163997
	C72	C	0.789110	0.840587	0.093557
	C73	C	0.778538	0.811036	0.119338
	C74	C	0.791061	0.792317	0.119362
	C75	C	0.813682	0.803849	0.093208
	C76	C	0.823096	0.832970	0.065473
	C77	C	0.811020	0.851506	0.065891
	C78	C	0.754166	0.806143	0.142962
	C79	C	0.771657	0.855200	0.098797
	N80	N	0.750712	0.833437	0.128311
	O81	O	0.773579	0.880214	0.081739
	O82	O	0.739974	0.784205	0.169291
	C83	C	0.823669	0.780230	0.099359
	C84	C	0.785706	0.760011	0.143226
	N85	N	0.806371	0.754434	0.129555
	O86	O	0.768492	0.741774	0.169148
	O87	O	0.842855	0.781363	0.083293
	C88	C	0.826603	0.881814	0.035267
	C89	C	0.846065	0.850130	0.033542
	N90	N	0.847327	0.879411	0.016760
	O91	O	0.861156	0.842239	0.022686
	O92	O	0.823531	0.904438	0.026857
	C93	C	0.241198	0.038035	-0.050132
	C94	C	0.273138	0.056798	-0.039316
	C95	C	0.284158	0.088338	-0.054738
	C96	C	0.263078	0.100176	-0.081119
	C97	C	0.231106	0.080967	-0.093473
	C98	C	0.220093	0.049934	-0.077355
	C99	C	0.288974	0.036861	-0.009018
	C100	C	0.235490	0.006092	-0.027612
	N101	N	0.264726	0.006462	-0.003570
	O102	O	0.211388	-0.016847	-0.027985
	O103	O	0.316096	0.043689	0.008140
	C104	C	0.280556	0.134186	-0.090220
	C105	C	0.316076	0.114817	-0.045393
	N106	N	0.312145	0.141723	-0.066917
	O107	O	0.340712	0.114850	-0.023990
	O108	O	0.271077	0.152764	-0.111410
	C109	C	0.184927	0.035247	-0.092262
	C110	C	0.203417	0.087473	-0.118625
	N111	N	0.176361	0.059098	-0.116668
	O112	O	0.202632	0.111327	-0.136760
	O113	O	0.166313	0.009036	-0.085026
	F114	F	0.949546	0.263930	0.058566
	C115	C	0.922086	0.259338	0.028313
	C116	C	0.895655	0.248863	0.045734
	F117	F	0.897798	0.243206	0.092494
	C118	C	0.866786	0.244159	0.014580
	C119	C	0.865359	0.251831	-0.034273
	F120	F	0.838216	0.248808	-0.064586
	C121	C	0.891642	0.262181	-0.051609
	F122	F	0.889755	0.269398	-0.098483
	C123	C	0.919991	0.264745	-0.020553
	F124	F	0.095970	0.402875	-0.166417
	C125	C	0.112124	0.397981	-0.122361
	C126	C	0.144149	0.416244	-0.110511
	F127	F	0.158797	0.438356	-0.143470
	C128	C	0.161378	0.411567	-0.064419
	C129	C	0.145598	0.389021	-0.030021
	F130	F	0.161597	0.385077	0.014485
	C131	C	0.113720	0.370443	-0.042008
	F132	F	0.099108	0.348541	-0.008810
	C133	C	0.096794	0.374058	-0.088684
	F134	F	0.843953	0.735654	0.213429
	C135	C	0.834036	0.723626	0.174739
	C136	C	0.848244	0.708073	0.169669
	F137	F	0.871481	0.704625	0.204150
	C138	C	0.838621	0.696462	0.128322
	C139	C	0.810844	0.695699	0.096997
	F140	F	0.798252	0.681049	0.060566
	C141	C	0.796354	0.710729	0.102550
	F142	F	0.770154	0.710259	0.071877
	C143	C	0.810072	0.727792	0.138470
	F144	F	0.695327	0.818128	0.061123
	C145	C	0.700549	0.833949	0.092786
	C146	C	0.681260	0.847144	0.086265
	F147	F	0.658097	0.844458	0.047600
	C148	C	0.686075	0.863498	0.119215
	C149	C	0.709244	0.864192	0.160673
	F150	F	0.712635	0.877429	0.194602
	C151	C	0.729105	0.851616	0.166568
	F152	F	0.751457	0.852840	0.205961
	C153	C	0.726132	0.837995	0.131185
	F154	F	0.290704	0.979685	-0.033360
	C155	C	0.273705	0.963842	-0.000237
	C156	C	0.262044	0.932340	0.011162
	F157	F	0.268408	0.918512	-0.011190
	C158	C	0.243206	0.915244	0.044487
	C159	C	0.241517	0.931067	0.072151
	F160	F	0.228182	0.915981	0.109497
	C161	C	0.252776	0.962487	0.060331
	F162	F	0.249349	0.977010	0.085559
	C163	C	0.266290	0.978812	0.020892
	F164	F	0.312083	0.162623	0.005923
	C165	C	0.330912	0.182054	-0.023895
	C166	C	0.347460	0.212618	-0.020515
	F167	F	0.344005	0.222276	0.011945
	C168	C	0.367747	0.233433	-0.050540
	C169	C	0.371510	0.222603	-0.083459
	F170	F	0.390973	0.241943	-0.112443
	C171	C	0.355006	0.191932	-0.086715
	F172	F	0.359769	0.181949	-0.117260
	C173	C	0.333510	0.171488	-0.058331
	C174	C	0.730040	0.175121	0.022255
	C175	C	0.756081	0.172186	0.024324
	C176	C	0.785796	0.196927	0.028101
	C177	C	0.789434	0.225064	0.028903
	C178	C	0.763130	0.228481	0.025432
	C179	C	0.733675	0.203659	0.023019
	C180	C	0.746184	0.140096	0.022707
	C181	C	0.702105	0.144468	0.018011
	N182	N	0.713597	0.123968	0.019705
	O183	O	0.675046	0.137274	0.013443
	O184	O	0.762146	0.129007	0.023677
	C185	C	0.823288	0.247377	0.030049
	C186	C	0.817174	0.199728	0.030723
	N187	N	0.838626	0.230798	0.030181
	O188	O	0.824138	0.180434	0.032500
	O189	O	0.836237	0.274097	0.030317
	C190	C	0.710722	0.214598	0.020544
	C191	C	0.760170	0.255810	0.025345
	N192	N	0.728206	0.246062	0.022693
	O193	O	0.779861	0.281455	0.027337
	O194	O	0.683017	0.200895	0.017448
	C195	C	0.300350	0.499115	-0.041606
	C196	C	0.271246	0.496848	-0.045394
	C197	C	0.244718	0.468708	-0.046348
	C198	C	0.247547	0.442814	-0.042506
	C199	C	0.276805	0.445016	-0.038889
	C200	C	0.303028	0.473074	-0.039061
	C201	C	0.275265	0.527786	-0.046945
	C202	C	0.323859	0.532078	-0.043075
	N203	N	0.307300	0.548027	-0.045577
	O204	O	0.351117	0.544056	-0.043082
	O205	O	0.256326	0.535489	-0.048334
	C206	C	0.215460	0.416441	-0.046046
	C207	C	0.210779	0.459806	-0.051796
	N208	N	0.194271	0.428310	-0.053209
	O209	O	0.198767	0.475173	-0.054363
	O210	O	0.207870	0.390079	-0.042977
	C211	C	0.330563	0.468370	-0.035875
	C212	C	0.286694	0.421318	-0.034570
	N213	N	0.319010	0.436892	-0.034446
	O214	O	0.271450	0.394325	-0.031667
	O215	O	0.357303	0.486579	-0.035382
	C216	C	0.896646	0.639542	0.065408
	C217	C	0.870261	0.634800	0.077086
	C218	C	0.869971	0.657611	0.091599
	C219	C	0.895731	0.685788	0.092949
	C220	C	0.922713	0.690760	0.081533
	C221	C	0.923192	0.667716	0.068237
	C222	C	0.845353	0.603509	0.070848
	C223	C	0.890214	0.609972	0.055088
	N224	N	0.858822	0.589039	0.059382
	O225	O	0.907040	0.603563	0.045802
	O226	O	0.818691	0.591567	0.074511
	C227	C	0.887546	0.705214	0.108618
	C228	C	0.845062	0.657484	0.107530
	N229	N	0.856634	0.686676	0.117090
	O230	O	0.819871	0.637059	0.112383
	O231	O	0.902690	0.731219	0.113473
	C232	C	0.954782	0.679522	0.058213
	C233	C	0.954212	0.717991	0.080867
	N234	N	0.972582	0.709631	0.067199
	O235	O	0.963564	0.742424	0.089978
	O236	O	0.964482	0.667050	0.045193
	C237	C	0.619660	0.944561	0.042332
	C238	C	0.649173	0.945593	0.060673
	C239	C	0.652145	0.918419	0.078477
	C240	C	0.625542	0.890746	0.078958
	C241	C	0.595859	0.889811	0.061449
	C242	C	0.592852	0.916558	0.042812
	C243	C	0.672931	0.978591	0.056234
	C244	C	0.623403	0.976611	0.026121
	N245	N	0.655899	0.996082	0.036182
	O246	O	0.603755	0.985438	0.008368
	O247	O	0.700888	0.989624	0.066948
	C248	C	0.635294	0.865648	0.100517
	C249	C	0.680038	0.911717	0.096469
	N250	N	0.668269	0.879494	0.109018
	O251	O	0.707212	0.928982	0.099234
	O252	O	0.619108	0.838804	0.109593
	C253	C	0.558460	0.908314	0.025883
	C254	C	0.563728	0.863553	0.057114
	N255	N	0.542245	0.876046	0.034785
	O256	O	0.556297	0.836849	0.070021
	O257	O	0.545804	0.924533	0.008363
	C258	C	0.175851	0.776578	0.064373
	C259	C	0.204316	0.801912	0.060952
	C260	C	0.207118	0.831056	0.055027
	C261	C	0.181118	0.834790	0.050707
	C262	C	0.151937	0.809234	0.052217
	C263	C	0.149526	0.780321	0.059642
	C264	C	0.227619	0.791271	0.064533
	C265	C	0.180194	0.748676	0.071874
	N266	N	0.211787	0.759100	0.070835
	O267	O	0.161624	0.722429	0.078338
	O268	O	0.254423	0.806061	0.061380
	C269	C	0.191429	0.868356	0.044070
	C270	C	0.235186	0.861673	0.054373
	N271	N	0.224429	0.883381	0.047629
	O272	O	0.262044	0.867776	0.059539
	O273	O	0.176310	0.881499	0.037571
	C274	C	0.116654	0.757386	0.063828
	C275	C	0.120277	0.805645	0.050848
	N276	N	0.099986	0.773877	0.057408
	O277	O	0.112348	0.824695	0.046191
	O278	O	0.105628	0.730159	0.072503
	C279	C	0.454205	0.362669	-0.012182
	C280	C	0.453410	0.335598	-0.012503
	C281	C	0.424925	0.310983	-0.026218
	C282	C	0.397352	0.313764	-0.040598
	C283	C	0.397922	0.340672	-0.038781
	C284	C	0.426192	0.365024	-0.024768
	C285	C	0.486318	0.339400	0.002329
	C286	C	0.487884	0.384707	0.003634
	N287	N	0.506009	0.369326	0.011132
	O288	O	0.498841	0.410346	0.009006
	O289	O	0.495849	0.321656	0.006160
	C290	C	0.370986	0.284181	-0.053857
	C291	C	0.417107	0.279272	-0.028163
	N292	N	0.384477	0.264425	-0.046213
	O293	O	0.433685	0.266927	-0.015635
	O294	O	0.343620	0.277160	-0.068335
	C295	C	0.419369	0.390073	-0.024847
	C296	C	0.372168	0.349712	-0.050067
	N297	N	0.386457	0.379291	-0.039769
	O298	O	0.344642	0.335792	-0.064904
	O299	O	0.436980	0.414637	-0.014464
	F300	F	0.672862	0.084930	0.080444
	C301	C	0.677723	0.073101	0.052632
	C302	C	0.664615	0.041658	0.058028
	F303	F	0.647950	0.024328	0.091325
	C304	C	0.669031	0.028114	0.029923
	C305	C	0.686680	0.047179	-0.004315
	F306	F	0.691521	0.035088	-0.031754
	C307	C	0.699663	0.078654	-0.009892
	F308	F	0.715835	0.095854	-0.043858
	C309	C	0.696360	0.092244	0.019677
	F310	F	0.691630	0.268416	-0.055231
	C311	C	0.701549	0.278539	-0.014655
	C312	C	0.696676	0.302276	-0.013019
	F313	F	0.682620	0.315174	-0.052403
	C314	C	0.706652	0.312950	0.029310
	C315	C	0.719886	0.298054	0.070356
	F316	F	0.728243	0.307087	0.111466
	C317	C	0.724525	0.274206	0.068768
	F318	F	0.736368	0.259640	0.108605
	C319	C	0.717099	0.265377	0.025652
	F320	F	0.332557	0.441401	-0.117991
	C321	C	0.342974	0.425541	-0.078328
	C322	C	0.359686	0.411456	-0.079830
	F323	F	0.366002	0.414331	-0.120758
	C324	C	0.369983	0.394234	-0.038722
	C325	C	0.363440	0.391693	0.003945
	F326	F	0.372798	0.374986	0.043454
	C327	C	0.347342	0.406325	0.005615
	F328	F	0.341901	0.404305	0.046796
	C329	C	0.336622	0.423147	-0.035587
	F330	F	0.308427	0.644602	-0.119672
	C331	C	0.318013	0.627218	-0.081763
	C332	C	0.310775	0.598029	-0.084321
	F333	F	0.294175	0.587393	-0.124632
	C334	C	0.320009	0.579233	-0.044817
	C335	C	0.339014	0.591255	-0.003771
	F336	F	0.349768	0.574380	0.033441
	C337	C	0.346190	0.620445	-0.001145
	F338	F	0.363716	0.631581	0.038545
	C339	C	0.334558	0.638205	-0.039375
	F340	F	0.052505	0.773782	-0.022860
	C341	C	0.044679	0.759350	0.019129
	C342	C	0.013287	0.743663	0.021639
	F343	F	-0.008798	0.743280	-0.017921
	C344	C	0.004478	0.727820	0.064997
	C345	C	0.028036	0.729362	0.106078
	F346	F	0.020229	0.714925	0.148102
	C347	C	0.059419	0.745320	0.103635
	F348	F	0.081545	0.746176	0.143324
	C349	C	0.068193	0.760049	0.060019
	F350	F	0.854505	0.561626	-0.012510
	C351	C	0.837920	0.544930	0.020892
	C352	C	0.815039	0.515272	0.017026
	F353	F	0.810633	0.503298	-0.019054
	C354	C	0.796258	0.497823	0.050231
	C355	C	0.804632	0.508778	0.091624
	F356	F	0.789632	0.491403	0.126775
	C357	C	0.828355	0.537814	0.096335
	F358	F	0.836843	0.547654	0.136669
	C359	C	0.843015	0.557414	0.059026
	F360	F	0.507693	0.842875	0.104286
	C361	C	0.492846	0.840818	0.059016
	C362	C	0.461360	0.820649	0.048147
	F363	F	0.446157	0.803336	0.083171
	C364	C	0.445496	0.817989	0.001013
	C365	C	0.461516	0.837324	-0.035068
	F366	F	0.446251	0.836587	-0.080391
	C367	C	0.493221	0.857005	-0.024139
	F368	F	0.508465	0.874587	-0.059020
	C369	C	0.509463	0.858455	0.023109
	F370	F	0.259736	0.749191	0.143547
	C371	C	0.251677	0.740568	0.102139
	C372	C	0.270238	0.731616	0.091974
	F373	F	0.295496	0.730858	0.124238
	C374	C	0.263178	0.724290	0.047628
	C375	C	0.234043	0.720189	0.017994
	F376	F	0.224553	0.709291	-0.021784
	C377	C	0.215107	0.728391	0.028749
	F378	F	0.187537	0.724764	-0.000451
	C379	C	0.225262	0.741557	0.068555
	F380	F	0.535866	0.399537	-0.063914
	C381	C	0.552885	0.394928	-0.020455
	C382	C	0.583932	0.401757	-0.014603
	F383	F	0.596706	0.412935	-0.052446
	C384	C	0.601844	0.396530	0.030518
	C385	C	0.588862	0.387185	0.069959
	F386	F	0.606500	0.385023	0.113642
	C387	C	0.557567	0.379688	0.064036
	F388	F	0.545048	0.369396	0.101956
	C389	C	0.538891	0.382272	0.018590
	C390	C	0.716313	0.433766	0.036630
	C391	C	0.733421	0.419815	0.036322
	C392	C	0.718487	0.388786	0.034502
	C393	C	0.686719	0.371885	0.033525
	C394	C	0.669677	0.385866	0.034989
	C395	C	0.684262	0.416727	0.035933
	C396	C	0.767070	0.443228	0.038956
	C397	C	0.738307	0.466658	0.038980
	N398	N	0.768644	0.470743	0.041791
	O399	O	0.732991	0.486731	0.038742
	O400	O	0.789278	0.440577	0.039463
	C401	C	0.677649	0.339386	0.033583
	C402	C	0.730516	0.368085	0.032716
	N403	N	0.704689	0.338851	0.030892
	O404	O	0.756475	0.373541	0.033093
	O405	O	0.653318	0.317120	0.036942
	C406	C	0.660167	0.425207	0.036972
	C407	C	0.635574	0.373824	0.033184
	N408	N	0.631350	0.398383	0.035093
	O409	O	0.614834	0.348710	0.029895
	O410	O	0.663112	0.449301	0.038691
	C411	C	0.374641	0.745743	-0.018511
	C412	C	0.362915	0.759803	-0.003637
	C413	C	0.332983	0.743356	0.006324
	C414	C	0.315507	0.712931	0.002427
	C415	C	0.327127	0.699054	-0.013622
	C416	C	0.356351	0.715514	-0.024918
	C417	C	0.388090	0.791559	0.001498
	C418	C	0.407776	0.767640	-0.022569
	N419	N	0.414769	0.794565	-0.009197
	O420	O	0.426113	0.764035	-0.033442
	O421	O	0.387380	0.811349	0.012527
	C422	C	0.285253	0.700832	0.017058
	C423	C	0.314703	0.751662	0.024436
	N424	N	0.286442	0.725023	0.031021
	O425	O	0.321162	0.775731	0.031942
	O426	O	0.263649	0.675933	0.016856
	C427	C	0.362946	0.694577	-0.039497
	C428	C	0.314816	0.666642	-0.017649
	N429	N	0.337155	0.665420	-0.033806
	O430	O	0.291564	0.644717	-0.007852
	O431	O	0.384735	0.699885	-0.053864
	C432	C	-0.009110	-0.042457	0.157015
	C433	C	-0.039861	-0.059304	0.162211
	C434	C	-0.048055	-0.085674	0.196939
	C435	C	-0.025939	-0.096061	0.223560
	C436	C	0.004546	-0.079976	0.216440
	C437	C	0.013351	-0.052575	0.184762
	C438	C	-0.058408	-0.043194	0.127762
	C439	C	-0.006488	-0.013996	0.121503
	N440	N	-0.036895	-0.015664	0.104819
	O441	O	0.016238	0.007476	0.109273
	O442	O	-0.085974	-0.051039	0.118915
	C443	C	-0.041334	-0.125369	0.255687
	C444	C	-0.077562	-0.106249	0.215075
	N445	N	-0.072158	-0.129960	0.249928
	O446	O	-0.101432	-0.104065	0.204726
	O447	O	-0.031191	-0.142797	0.281226
	C448	C	0.047818	-0.039442	0.187764
	C449	C	0.032546	-0.085977	0.239646
	N450	N	0.057782	-0.060945	0.220740
	O451	O	0.034567	-0.107463	0.267995
	O452	O	0.064930	-0.015679	0.167802
	F453	F	-0.027469	0.065714	-0.030035
	C454	C	-0.037403	0.050927	0.010297
	C455	C	-0.034510	0.024374	0.033753
	F456	F	-0.022787	0.013807	0.014349
	C457	C	-0.042959	0.009269	0.077563
	C458	C	-0.055080	0.021152	0.096543
	F459	F	-0.063609	0.007285	0.138125
	C460	C	-0.057550	0.047834	0.073478
	F461	F	-0.066595	0.059951	0.094859
	C462	C	-0.049778	0.062564	0.029190
	F463	F	0.830905	0.781644	0.227361
	C464	C	0.856044	0.797878	0.257376
	C465	C	0.878894	0.824829	0.239134
	F466	F	0.875836	0.833430	0.192037
	C467	C	0.904678	0.842908	0.269585
	C468	C	0.907639	0.832566	0.318712
	F469	F	0.931799	0.850013	0.348302
	C470	C	0.885790	0.804327	0.336901
	F471	F	0.890546	0.793598	0.383459
	C472	C	0.858995	0.787288	0.306362
	F473	F	0.154355	-0.061911	0.317229
	C474	C	0.134887	-0.061777	0.274796
	C475	C	0.107926	-0.059392	0.269621
	F476	F	0.102535	-0.055302	0.306279
	C477	C	0.086294	-0.061245	0.226165
	C478	C	0.092154	-0.065515	0.188047
	F479	F	0.071188	-0.068348	0.146765
	C480	C	0.119610	-0.066676	0.192680
	F481	F	0.125278	-0.070132	0.155669
	C482	C	0.141579	-0.064133	0.235742
	C483	C	-0.024253	0.169071	0.015901
	C484	C	-0.039952	0.182622	0.022435
	C485	C	-0.072173	0.165475	0.022238
	C486	C	-0.087216	0.135583	0.015443
	C487	C	-0.071579	0.122796	0.006269
	C488	C	-0.040015	0.139485	0.006879
	C489	C	-0.015353	0.213703	0.033623
	C490	C	0.009886	0.190171	0.022465
	N491	N	0.014245	0.216215	0.034620
	O492	O	0.030700	0.186808	0.018845
	O493	O	-0.018275	0.233577	0.040169
	C494	C	-0.119277	0.120406	0.024878
	C495	C	-0.095783	0.170726	0.033610
	N496	N	-0.123021	0.142047	0.037389
	O497	O	-0.093595	0.193720	0.038789
	O498	O	-0.138418	0.094400	0.024520
	C499	C	-0.028132	0.118649	0.005070
	C500	C	-0.081388	0.090850	0.002440
	N501	N	-0.053595	0.089213	0.006271
	O502	O	-0.106852	0.069704	-0.001932
	O503	O	-0.002428	0.124226	0.003755
	C504	C	0.748059	0.721090	0.275028
	C505	C	0.730861	0.694798	0.255626
	C506	C	0.745681	0.677791	0.257091
	C507	C	0.777410	0.687676	0.277506
	C508	C	0.794764	0.714667	0.295562
	C509	C	0.780067	0.731212	0.294546
	C510	C	0.697940	0.691424	0.234844
	C511	C	0.727273	0.735414	0.267451
	N512	N	0.697596	0.716930	0.242562
	O513	O	0.733134	0.757780	0.280130
	O514	O	0.675529	0.671830	0.215433
	C515	C	0.787719	0.666750	0.271907
	C516	C	0.734315	0.649053	0.239301
	N517	N	0.761008	0.644023	0.248706
	O518	O	0.708581	0.632724	0.220586
	O519	O	0.813378	0.668060	0.283204
	C520	C	0.804402	0.759724	0.313201
	C521	C	0.829051	0.731760	0.315864
	N522	N	0.833779	0.760005	0.321475
	O523	O	0.849506	0.724312	0.325837
	O524	O	0.801170	0.779558	0.319426
	C525	C	0.225436	-0.087995	0.232459
	C526	C	0.252056	-0.071276	0.213487
	C527	C	0.263392	-0.039569	0.199483
	C528	C	0.246836	-0.025950	0.203002
	C529	C	0.218420	-0.043405	0.217267
	C530	C	0.208144	-0.074271	0.233535
	C531	C	0.261947	-0.093808	0.211303
	C532	C	0.219324	-0.120513	0.247181
	N533	N	0.240800	-0.123139	0.231603
	O534	O	0.200495	-0.141337	0.268894
	O535	O	0.282287	-0.089597	0.194565
	C536	C	0.263734	0.007633	0.188175
	C537	C	0.291413	-0.014363	0.179604
	N538	N	0.290084	0.013470	0.173959
	O539	O	0.311116	-0.015908	0.168963
	O540	O	0.257815	0.027080	0.189266
	C541	C	0.177294	-0.086902	0.246687
	C542	C	0.194406	-0.035035	0.218018
	N543	N	0.170610	-0.061973	0.237161
	O544	O	0.194138	-0.010752	0.204029
	O545	O	0.160797	-0.112640	0.261890
	F546	F	0.888503	0.152433	0.128612
	C547	C	0.859055	0.136512	0.106917
	C548	C	0.835338	0.123536	0.131671
	F549	F	0.842234	0.128229	0.175765
	C550	C	0.804476	0.105382	0.111312
	C551	C	0.798350	0.099942	0.065938
	F552	F	0.769743	0.080162	0.047353
	C553	C	0.821440	0.115227	0.039565
	F554	F	0.813712	0.112644	-0.005954
	C555	C	0.852546	0.132777	0.060264
	F556	F	0.046324	0.263438	-0.030911
	C557	C	0.061550	0.260412	0.014318
	C558	C	0.093758	0.277902	0.026302
	F559	F	0.109054	0.297653	-0.007675
	C560	C	0.110321	0.274896	0.073272
	C561	C	0.093365	0.255081	0.108210
	F562	F	0.108399	0.252856	0.153718
	C563	C	0.061122	0.237385	0.096062
	F564	F	0.045374	0.218092	0.129777
	C565	C	0.044914	0.239042	0.048650
	F566	F	0.766031	0.596158	0.319053
	C567	C	0.769062	0.598692	0.275790
	C568	C	0.780155	0.581116	0.268603
	F569	F	0.788099	0.562012	0.305217
	C570	C	0.783508	0.583597	0.223527
	C571	C	0.770656	0.600226	0.184981
	F572	F	0.767372	0.597906	0.140870
	C573	C	0.761588	0.619430	0.192461
	F574	F	0.752588	0.637785	0.155643
	C575	C	0.762393	0.620065	0.238453
	F576	F	0.676302	0.740803	0.148129
	C577	C	0.664513	0.739134	0.182575
	C578	C	0.644971	0.752693	0.172481
	F579	F	0.638896	0.768030	0.128893
	C580	C	0.631837	0.750672	0.207707
	C581	C	0.637726	0.733744	0.252681
	F582	F	0.624430	0.730638	0.286328
	C583	C	0.657476	0.720479	0.262879
	F584	F	0.662833	0.704410	0.306095
	C585	C	0.672295	0.724252	0.228583
	F586	F	0.198183	0.854895	0.152154
	C587	C	0.208093	0.836339	0.187020
	C588	C	0.192381	0.805366	0.187118
	F589	F	0.167072	0.794308	0.153152
	C590	C	0.202336	0.785438	0.222763
	C591	C	0.229898	0.797695	0.256450
	F592	F	0.241564	0.779474	0.288319
	C593	C	0.245067	0.828714	0.257379
	F594	F	0.270810	0.840020	0.290487
	C595	C	0.233188	0.848083	0.224136
	F596	F	0.343409	0.046489	0.236091
	C597	C	0.335328	0.060793	0.192602
	C598	C	0.349844	0.092374	0.181640
	F599	F	0.371779	0.108355	0.214778
	C600	C	0.341289	0.107701	0.136501
	C601	C	0.319290	0.090554	0.101785
	F602	F	0.311804	0.104604	0.057736
	C603	C	0.304466	0.058998	0.112942
	F604	F	0.282649	0.043075	0.079664
	C605	C	0.311303	0.043805	0.159061
	C606	C	0.687484	0.046651	0.192509
	C607	C	0.707806	0.040043	0.182105
	C608	C	0.734370	0.063651	0.165393
	C609	C	0.739820	0.093550	0.158324
	C610	C	0.718673	0.100165	0.166945
	C611	C	0.693023	0.076958	0.185052
	C612	C	0.694927	0.005986	0.190803
	C613	C	0.661061	0.017015	0.208542
	N614	N	0.666864	-0.006604	0.206683
	O615	O	0.638899	0.012577	0.221017
	O616	O	0.704538	-0.009204	0.184800
	C617	C	0.768578	0.113817	0.138147
	C618	C	0.760361	0.063913	0.151386
	N619	N	0.779766	0.094809	0.134222
	O620	O	0.764887	0.043055	0.153269
	O621	O	0.780230	0.140949	0.126124
	C622	C	0.675146	0.091173	0.191038
	C623	C	0.717626	0.129767	0.159304
	N624	N	0.690954	0.122975	0.174279
	O625	O	0.734839	0.154856	0.142731
	O626	O	0.652477	0.079471	0.207505
	C627	C	0.249484	0.363387	0.113153
	C628	C	0.219580	0.359569	0.108097
	C629	C	0.193512	0.332011	0.099126
	C630	C	0.197374	0.308534	0.094186
	C631	C	0.227535	0.312717	0.097422
	C632	C	0.253454	0.339855	0.107317
	C633	C	0.221990	0.388418	0.113862
	C634	C	0.272230	0.395141	0.122506
	N635	N	0.254160	0.409101	0.122281
	O636	O	0.300164	0.407678	0.128908
	O637	O	0.201758	0.394679	0.111404
	C638	C	0.165232	0.282478	0.083745
	C639	C	0.159202	0.321614	0.093792
	N640	N	0.143325	0.291726	0.084398
	O641	O	0.146365	0.334859	0.096688
	O642	O	0.157884	0.258226	0.075966
	C643	C	0.282344	0.337169	0.110719
	C644	C	0.238988	0.292057	0.093133
	N645	N	0.272147	0.308062	0.101310
	O646	O	0.224281	0.266903	0.084271
	O647	O	0.309298	0.355187	0.119648
	C648	C	0.853896	0.515136	0.231152
	C649	C	0.824665	0.511886	0.228980
	C650	C	0.820514	0.537460	0.224122
	C651	C	0.845699	0.566184	0.221677
	C652	C	0.875545	0.569477	0.225353
	C653	C	0.879468	0.544110	0.229461
	C654	C	0.801828	0.478815	0.231052
	C655	C	0.850651	0.484114	0.233970
	N656	N	0.818662	0.463349	0.233107
	O657	O	0.870035	0.476974	0.235595
	O658	O	0.774420	0.466393	0.230716
	C659	C	0.834158	0.588556	0.218173
	C660	C	0.791950	0.540435	0.221227
	N661	N	0.801723	0.571634	0.218472
	O662	O	0.765737	0.521079	0.222288
	O663	O	0.848440	0.615526	0.216407
	C664	C	0.913262	0.554473	0.231159
	C665	C	0.906624	0.597104	0.222634
	N666	N	0.928559	0.586496	0.227549
	O667	O	0.912815	0.623427	0.215979
	O668	O	0.926103	0.539759	0.234160
	C669	C	0.561567	0.816979	0.208896
	C670	C	0.591121	0.821015	0.210649
	C671	C	0.594968	0.797493	0.204762
	C672	C	0.569008	0.770213	0.196418
	C673	C	0.539305	0.766003	0.195004
	C674	C	0.535377	0.789117	0.201247
	C675	C	0.614183	0.853110	0.216551
	C676	C	0.565287	0.845816	0.217573
	N677	N	0.597569	0.866721	0.221854
	O678	O	0.546165	0.851602	0.221181
	O679	O	0.641424	0.866500	0.215631
	C680	C	0.579680	0.749054	0.192156
	C681	C	0.623390	0.794844	0.205696
	N682	N	0.612636	0.764925	0.198945
	O683	O	0.650400	0.813123	0.211493
	O684	O	0.564663	0.723494	0.184935
	C685	C	0.500742	0.777886	0.195670
	C686	C	0.507911	0.739348	0.185878
	N687	N	0.485625	0.747705	0.186665
	O688	O	0.501282	0.715089	0.178802
	O689	O	0.487215	0.790673	0.197706
	C690	C	0.123247	0.657319	0.179600
	C691	C	0.152640	0.681954	0.180764
	C692	C	0.160114	0.707122	0.198633
	C693	C	0.138240	0.707507	0.215703
	C694	C	0.108118	0.683125	0.213039
	C695	C	0.100807	0.658033	0.195617
	C696	C	0.171770	0.675249	0.161736
	C697	C	0.122320	0.634177	0.158321
	N698	N	0.152362	0.646365	0.148617
	O699	O	0.101448	0.609927	0.150474
	O700	O	0.198522	0.690148	0.158005
	C701	C	0.152999	0.737339	0.232003
	C702	C	0.189104	0.736845	0.201922
	N703	N	0.183761	0.753894	0.223110
	O704	O	0.212496	0.746343	0.188276
	O705	O	0.142592	0.746989	0.249372
	C706	C	0.067241	0.635795	0.197001
	C707	C	0.079461	0.677701	0.226332
	N708	N	0.055607	0.648934	0.215599
	O709	O	0.075913	0.693710	0.242474
	O710	O	0.051909	0.611393	0.185365
	C711	C	0.415631	0.246074	0.102061
	C712	C	0.416599	0.218970	0.107414
	C713	C	0.390344	0.191114	0.114071
	C714	C	0.363091	0.190281	0.116115
	C715	C	0.362192	0.217574	0.112069
	C716	C	0.388119	0.245333	0.104742
	C717	C	0.448660	0.225767	0.105558
	C718	C	0.447621	0.271506	0.096017
	N719	N	0.466417	0.257635	0.098933
	O720	O	0.456464	0.298397	0.089269
	O721	O	0.458751	0.208440	0.109658
	C722	C	0.339800	0.157277	0.125787
	C723	C	0.385104	0.159124	0.119416
	N724	N	0.354383	0.139792	0.126613
	O725	O	0.402301	0.150239	0.117606
	O726	O	0.313987	0.146259	0.132493
	C727	C	0.379432	0.270039	0.100488
	C728	C	0.336235	0.223541	0.112497
	N729	N	0.348011	0.255489	0.106097
	O730	O	0.310215	0.205638	0.117425
	O731	O	0.394960	0.297052	0.093341
	F732	F	0.664863	-0.045117	0.296137
	C733	C	0.646904	-0.057164	0.257315
	C734	C	0.629533	-0.088628	0.261376
	F735	F	0.630860	-0.106461	0.304065
	C736	C	0.610707	-0.101736	0.221165
	C737	C	0.607223	-0.082447	0.177926
	F738	F	0.587027	-0.094396	0.139934
	C739	C	0.624810	-0.051126	0.173775
	F740	F	0.621585	-0.033480	0.131446
	C741	C	0.646006	-0.038045	0.212995
	F742	F	0.658241	0.146803	0.092573
	C743	C	0.667309	0.157835	0.132031
	C744	C	0.662342	0.182108	0.131038
	F745	F	0.649746	0.195203	0.090055
	C746	C	0.670648	0.193210	0.172457
	C747	C	0.683911	0.179219	0.214743
	F748	F	0.690909	0.188404	0.255291
	C749	C	0.690656	0.156329	0.215027
	F750	F	0.705602	0.145088	0.255263
	C751	C	0.682455	0.145204	0.173810
	F752	F	0.297836	0.320950	0.024293
	C753	C	0.304212	0.302250	0.063506
	C754	C	0.322733	0.289216	0.064668
	F755	F	0.333615	0.295311	0.026452
	C756	C	0.330343	0.269965	0.105298
	C757	C	0.318885	0.264402	0.144850
	F758	F	0.326358	0.246735	0.184716
	C759	C	0.299858	0.276911	0.143410
	F760	F	0.288865	0.270711	0.181568
	C761	C	0.292045	0.295940	0.102639
	F762	F	0.297323	0.515121	0.053129
	C763	C	0.284462	0.493050	0.087585
	C764	C	0.278691	0.463478	0.089609
	F765	F	0.286084	0.457600	0.057028
	C766	C	0.265054	0.439808	0.124972
	C767	C	0.259576	0.447153	0.160301
	F768	F	0.248863	0.425557	0.196767
	C769	C	0.264929	0.476646	0.157853
	F770	F	0.258808	0.482928	0.191454
	C771	C	0.276574	0.499908	0.120641
	F772	F	0.008591	0.653769	0.138776
	C773	C	0.000762	0.637289	0.180179
	C774	C	-0.030538	0.621962	0.183119
	F775	F	-0.052603	0.623470	0.144431
	C776	C	-0.039386	0.604696	0.225975
	C777	C	-0.015758	0.604609	0.266416
	F778	F	-0.023456	0.589547	0.308340
	C779	C	0.015551	0.619658	0.263404
	F780	F	0.037643	0.618634	0.302346
	C781	C	0.024214	0.635645	0.219984
	F782	F	0.810250	0.447406	0.148228
	C783	C	0.796244	0.425986	0.182299
	C784	C	0.773670	0.397429	0.172472
	F785	F	0.765895	0.391413	0.129121
	C786	C	0.758330	0.374957	0.207349
	C787	C	0.769387	0.380229	0.253900
	F788	F	0.757570	0.357525	0.288539
	C789	C	0.791982	0.408851	0.263778
	F790	F	0.802343	0.413918	0.308179
	C791	C	0.803610	0.432723	0.227133
	F792	F	0.451057	0.707665	0.255716
	C793	C	0.436983	0.707037	0.209937
	C794	C	0.406760	0.684544	0.197282
	F795	F	0.391742	0.663533	0.230773
	C796	C	0.391830	0.683303	0.149523
	C797	C	0.407451	0.705755	0.114881
	F798	F	0.393215	0.705339	0.069127
	C799	C	0.437600	0.728227	0.127447
	F800	F	0.452049	0.749383	0.093519
	C801	C	0.453145	0.728605	0.175087
	F802	F	0.172550	0.604658	0.211724
	C803	C	0.176631	0.612933	0.167310
	C804	C	0.194632	0.604116	0.155416
	F805	F	0.207845	0.587443	0.188487
	C806	C	0.199906	0.613297	0.109479
	C807	C	0.184040	0.628770	0.074594
	F808	F	0.186633	0.635610	0.029608
	C809	C	0.166198	0.637796	0.086593
	F810	F	0.151933	0.653356	0.053035
	C811	C	0.163756	0.631429	0.133663
	F812	F	0.489919	0.261157	0.024932
	C813	C	0.509898	0.270588	0.064802
	C814	C	0.541348	0.278547	0.070926
	F815	F	0.551438	0.278270	0.035964
	C816	C	0.562376	0.286093	0.113764
	C817	C	0.551925	0.289453	0.147592
	F818	F	0.572019	0.298799	0.187476
	C819	C	0.520702	0.282625	0.140694
	F820	F	0.511257	0.285911	0.173641
	C821	C	0.498902	0.271536	0.100352
	C822	C	0.678580	0.315497	0.167117
	C823	C	0.695736	0.299182	0.180876
	C824	C	0.680808	0.268707	0.175842
	C825	C	0.648743	0.254476	0.158531
	C826	C	0.631174	0.270476	0.147486
	C827	C	0.646035	0.300910	0.151187
	C828	C	0.729410	0.319803	0.199607
	C829	C	0.700875	0.347544	0.174520
	N830	N	0.730958	0.348589	0.194783
	O831	O	0.696000	0.369271	0.164637
	O832	O	0.751400	0.314265	0.216456
	C833	C	0.639627	0.222159	0.157144
	C834	C	0.693469	0.246402	0.185153
	N835	N	0.667826	0.219138	0.171722
	O836	O	0.719849	0.249673	0.200631
	O837	O	0.614280	0.201987	0.146099
	C838	C	0.621569	0.312143	0.135875
	C839	C	0.596645	0.261059	0.130526
	N840	N	0.592233	0.287002	0.124613
	O841	O	0.575722	0.236586	0.123824
	O842	O	0.625120	0.337161	0.133632
	C843	C	0.320674	0.611921	0.121827
	C844	C	0.307514	0.630955	0.115781
	C845	C	0.275027	0.619242	0.107631
	C846	C	0.255791	0.588974	0.103458
	C847	C	0.269018	0.570123	0.106876
	C848	C	0.301339	0.581364	0.117384
	C849	C	0.333445	0.662035	0.122862
	C850	C	0.355650	0.629858	0.135409
	N851	N	0.361787	0.659651	0.136264
	O852	O	0.375627	0.621896	0.144865
	O853	O	0.332108	0.685317	0.117422
	C854	C	0.222515	0.583034	0.097169
	C855	C	0.255244	0.633036	0.107747
	N856	N	0.223914	0.610334	0.101072
	O857	O	0.263127	0.657801	0.114400
	O858	O	0.198703	0.560326	0.090717
	C859	C	0.308839	0.555646	0.123636
	C860	C	0.254741	0.536744	0.106022
	N861	N	0.279921	0.529375	0.116428
	O862	O	0.227808	0.518507	0.098712
	O863	O	0.333762	0.555657	0.133451
	C864	C	0.003698	0.080328	0.189781
	C865	C	-0.024004	0.064641	0.205732
	C866	C	-0.035428	0.033351	0.223711
	C867	C	-0.018898	0.018195	0.225816
	C868	C	0.008986	0.034089	0.209666
	C869	C	0.020182	0.064982	0.191509
	C870	C	-0.035055	0.087379	0.202365
	C871	C	0.010625	0.113273	0.173756
	N872	N	-0.012557	0.116295	0.184544
	O873	O	0.030767	0.133950	0.154460
	O874	O	-0.057895	0.083608	0.212051
	C875	C	-0.036745	-0.014883	0.245494
	C876	C	-0.063283	0.010813	0.245330
	N877	N	-0.063035	-0.017876	0.256947
	O878	O	-0.082277	0.014834	0.253496
	O879	O	-0.031328	-0.035728	0.250310
	C880	C	0.051302	0.076158	0.180238
	C881	C	0.032759	0.024498	0.211502
	N882	N	0.057472	0.050649	0.192902
	O883	O	0.032082	-0.000168	0.225946
	O884	O	0.068518	0.101267	0.164028
	F885	F	-0.048154	0.193425	0.125102
	C886	C	-0.028593	0.182794	0.156410
	C887	C	-0.030634	0.155557	0.153832
	F888	F	-0.052375	0.139811	0.120346
	C889	C	-0.010074	0.144374	0.186047
	C890	C	0.013041	0.161401	0.220332
	F891	F	0.033353	0.151332	0.250715
	C892	C	0.014969	0.188541	0.223018
	F893	F	0.037288	0.204770	0.255567
	C894	C	-0.006397	0.199125	0.191865
	F895	F	0.832650	0.900989	0.252431
	C896	C	0.861840	0.914938	0.276734
	C897	C	0.884158	0.940174	0.253817
	F898	F	0.876289	0.950686	0.207623
	C899	C	0.914870	0.954887	0.278751
	C900	C	0.923139	0.942467	0.326322
	F901	F	0.952754	0.954631	0.350306
	C902	C	0.900827	0.917525	0.349328
	F903	F	0.909243	0.906486	0.395145
	C904	C	0.869742	0.903899	0.325169
	F905	F	0.154238	0.053182	0.291454
	C906	C	0.135735	0.053712	0.248081
	C907	C	0.106557	0.051786	0.242204
	F908	F	0.097199	0.049531	0.279923
	C909	C	0.086939	0.052521	0.197184
	C910	C	0.097311	0.055316	0.158061
	F911	F	0.079291	0.056981	0.114569
	C912	C	0.126397	0.056722	0.164077
	F913	F	0.135866	0.058896	0.126585
	C914	C	0.146046	0.056217	0.209142
	C915	C	0.026797	0.303124	0.219781
	C916	C	0.015926	0.313866	0.242831
	C917	C	-0.012020	0.294582	0.258575
	C918	C	-0.028079	0.264585	0.252234
	C919	C	-0.017314	0.253934	0.228473
	C920	C	0.009918	0.273185	0.211809
	C921	C	0.040235	0.345623	0.249636
	C922	C	0.058432	0.327319	0.211618
	N923	N	0.065708	0.351914	0.231666
	O924	O	0.075727	0.326908	0.193385
	O925	O	0.039856	0.363102	0.267032
	C926	C	-0.056115	0.248836	0.273910
	C927	C	-0.029097	0.298898	0.285599
	N928	N	-0.055393	0.270444	0.293752
	O929	O	-0.023162	0.321215	0.298296
	O930	O	-0.075939	0.222990	0.275056
	C931	C	0.016374	0.255205	0.189994
	C932	C	-0.027777	0.222452	0.221799
	N933	N	-0.006803	0.224662	0.198298
	O934	O	-0.048511	0.198878	0.235211
	O935	O	0.036389	0.263367	0.169336
	C936	C	0.789110	0.840587	0.426891
	C937	C	0.778538	0.811036	0.452672
	C938	C	0.791061	0.792317	0.452696
	C939	C	0.813682	0.803849	0.426542
	C940	C	0.823096	0.832970	0.398807
	C941	C	0.811020	0.851506	0.399224
	C942	C	0.754166	0.806143	0.476296
	C943	C	0.771657	0.855200	0.432131
	N944	N	0.750712	0.833437	0.461644
	O945	O	0.773579	0.880214	0.415073
	O946	O	0.739974	0.784205	0.502625
	C947	C	0.823669	0.780230	0.432693
	C948	C	0.785706	0.760011	0.476559
	N949	N	0.806371	0.754434	0.462889
	O950	O	0.768492	0.741774	0.502481
	O951	O	0.842855	0.781363	0.416626
	C952	C	0.826603	0.881814	0.368601
	C953	C	0.846065	0.850130	0.366875
	N954	N	0.847327	0.879411	0.350094
	O955	O	0.861156	0.842239	0.356020
	O956	O	0.823531	0.904438	0.360190
	C957	C	0.241198	0.038035	0.283201
	C958	C	0.273138	0.056798	0.294017
	C959	C	0.284158	0.088338	0.278595
	C960	C	0.263078	0.100176	0.252214
	C961	C	0.231106	0.080967	0.239860
	C962	C	0.220093	0.049934	0.255978
	C963	C	0.288974	0.036861	0.324315
	C964	C	0.235490	0.006092	0.305721
	N965	N	0.264726	0.006462	0.329763
	O966	O	0.211388	-0.016847	0.305348
	O967	O	0.316096	0.043689	0.341474
	C968	C	0.280556	0.134186	0.243113
	C969	C	0.316076	0.114817	0.287940
	N970	N	0.312145	0.141723	0.266417
	O971	O	0.340712	0.114850	0.309343
	O972	O	0.271077	0.152764	0.221924
	C973	C	0.184927	0.035247	0.241071
	C974	C	0.203417	0.087473	0.214709
	N975	N	0.176361	0.059098	0.216665
	O976	O	0.202632	0.111327	0.196573
	O977	O	0.166313	0.009036	0.248307
	F978	F	0.949546	0.263930	0.391900
	C979	C	0.922086	0.259338	0.361646
	C980	C	0.895655	0.248863	0.379067
	F981	F	0.897798	0.243206	0.425828
	C982	C	0.866786	0.244159	0.347913
	C983	C	0.865359	0.251831	0.299060
	F984	F	0.838216	0.248808	0.268748
	C985	C	0.891642	0.262181	0.281724
	F986	F	0.889755	0.269398	0.234850
	C987	C	0.919991	0.264745	0.312780
	F988	F	0.095970	0.402875	0.166917
	C989	C	0.112124	0.397981	0.210972
	C990	C	0.144149	0.416244	0.222822
	F991	F	0.158797	0.438356	0.189863
	C992	C	0.161378	0.411567	0.268914
	C993	C	0.145598	0.389021	0.303313
	F994	F	0.161597	0.385077	0.347819
	C995	C	0.113720	0.370443	0.291325
	F996	F	0.099108	0.348541	0.324523
	C997	C	0.096794	0.374058	0.244650
	F998	F	0.843953	0.735654	0.546763
	C999	C	0.834036	0.723626	0.508073
	C1000	C	0.848244	0.708073	0.503003
	F1001	F	0.871481	0.704625	0.537484
	C1002	C	0.838621	0.696462	0.461655
	C1003	C	0.810844	0.695699	0.430330
	F1004	F	0.798252	0.681049	0.393899
	C1005	C	0.796354	0.710729	0.435883
	F1006	F	0.770154	0.710259	0.405210
	C1007	C	0.810072	0.727792	0.471803
	F1008	F	0.695327	0.818128	0.394456
	C1009	C	0.700549	0.833949	0.426119
	C1010	C	0.681260	0.847144	0.419598
	F1011	F	0.658097	0.844458	0.380934
	C1012	C	0.686075	0.863498	0.452548
	C1013	C	0.709244	0.864192	0.494006
	F1014	F	0.712635	0.877429	0.527935
	C1015	C	0.729105	0.851616	0.499902
	F1016	F	0.751457	0.852840	0.539294
	C1017	C	0.726132	0.837995	0.464519
	F1018	F	0.290704	0.979685	0.299973
	C1019	C	0.273705	0.963842	0.333096
	C1020	C	0.262044	0.932340	0.344496
	F1021	F	0.268408	0.918512	0.322144
	C1022	C	0.243206	0.915244	0.377820
	C1023	C	0.241517	0.931067	0.405484
	F1024	F	0.228182	0.915981	0.442831
	C1025	C	0.252776	0.962487	0.393665
	F1026	F	0.249349	0.977010	0.418892
	C1027	C	0.266290	0.978812	0.354225
	F1028	F	0.312083	0.162623	0.339256
	C1029	C	0.330912	0.182054	0.309438
	C1030	C	0.347460	0.212618	0.312818
	F1031	F	0.344005	0.222276	0.345279
	C1032	C	0.367747	0.233433	0.282793
	C1033	C	0.371510	0.222603	0.249874
	F1034	F	0.390973	0.241943	0.220891
	C1035	C	0.355006	0.191932	0.246618
	F1036	F	0.359769	0.181949	0.216073
	C1037	C	0.333510	0.171488	0.275002
	C1038	C	0.730040	0.175121	0.355589
	C1039	C	0.756081	0.172186	0.357658
	C1040	C	0.785796	0.196927	0.361434
	C1041	C	0.789434	0.225064	0.362237
	C1042	C	0.763130	0.228481	0.358765
	C1043	C	0.733675	0.203659	0.356352
	C1044	C	0.746184	0.140096	0.356040
	C1045	C	0.702105	0.144468	0.351344
	N1046	N	0.713597	0.123968	0.353038
	O1047	O	0.675046	0.137274	0.346776
	O1048	O	0.762146	0.129007	0.357010
	C1049	C	0.823288	0.247377	0.363382
	C1050	C	0.817174	0.199728	0.364057
	N1051	N	0.838626	0.230798	0.363515
	O1052	O	0.824138	0.180434	0.365833
	O1053	O	0.836237	0.274097	0.363651
	C1054	C	0.710722	0.214598	0.353877
	C1055	C	0.760170	0.255810	0.358679
	N1056	N	0.728206	0.246062	0.356026
	O1057	O	0.779861	0.281455	0.360670
	O1058	O	0.683017	0.200895	0.350781
	C1059	C	0.300350	0.499115	0.291727
	C1060	C	0.271246	0.496848	0.287940
	C1061	C	0.244718	0.468708	0.286985
	C1062	C	0.247547	0.442814	0.290828
	C1063	C	0.276805	0.445016	0.294444
	C1064	C	0.303028	0.473074	0.294272
	C1065	C	0.275265	0.527786	0.286388
	C1066	C	0.323859	0.532078	0.290259
	N1067	N	0.307300	0.548027	0.287756
	O1068	O	0.351117	0.544056	0.290251
	O1069	O	0.256326	0.535489	0.285000
	C1070	C	0.215460	0.416441	0.287287
	C1071	C	0.210779	0.459806	0.281537
	N1072	N	0.194271	0.428310	0.280125
	O1073	O	0.198767	0.475173	0.278970
	O1074	O	0.207870	0.390079	0.290356
	C1075	C	0.330563	0.468370	0.297459
	C1076	C	0.286694	0.421318	0.298763
	N1077	N	0.319010	0.436892	0.298887
	O1078	O	0.271450	0.394325	0.301666
	O1079	O	0.357303	0.486579	0.297951
	C1080	C	0.896646	0.639542	0.398741
	C1081	C	0.870261	0.634800	0.410419
	C1082	C	0.869971	0.657611	0.424933
	C1083	C	0.895731	0.685788	0.426283
	C1084	C	0.922713	0.690760	0.414867
	C1085	C	0.923192	0.667716	0.401571
	C1086	C	0.845353	0.603509	0.404182
	C1087	C	0.890214	0.609972	0.388422
	N1088	N	0.858822	0.589039	0.392716
	O1089	O	0.907040	0.603563	0.379135
	O1090	O	0.818691	0.591567	0.407845
	C1091	C	0.887546	0.705214	0.441951
	C1092	C	0.845062	0.657484	0.440863
	N1093	N	0.856634	0.686676	0.450423
	O1094	O	0.819871	0.637059	0.445717
	O1095	O	0.902690	0.731219	0.446806
	C1096	C	0.954782	0.679522	0.391546
	C1097	C	0.954212	0.717991	0.414200
	N1098	N	0.972582	0.709631	0.400532
	O1099	O	0.963564	0.742424	0.423311
	O1100	O	0.964482	0.667050	0.378526
	C1101	C	0.619660	0.944561	0.375665
	C1102	C	0.649173	0.945593	0.394006
	C1103	C	0.652145	0.918419	0.411810
	C1104	C	0.625542	0.890746	0.412292
	C1105	C	0.595859	0.889811	0.394782
	C1106	C	0.592852	0.916558	0.376145
	C1107	C	0.672931	0.978591	0.389567
	C1108	C	0.623403	0.976611	0.359455
	N1109	N	0.655899	0.996082	0.369515
	O1110	O	0.603755	0.985438	0.341702
	O1111	O	0.700888	0.989624	0.400281
	C1112	C	0.635294	0.865648	0.433851
	C1113	C	0.680038	0.911717	0.429802
	N1114	N	0.668269	0.879494	0.442351
	O1115	O	0.707212	0.928982	0.432567
	O1116	O	0.619108	0.838804	0.442926
	C1117	C	0.558460	0.908314	0.359217
	C1118	C	0.563728	0.863553	0.390448
	N1119	N	0.542245	0.876046	0.368118
	O1120	O	0.556297	0.836849	0.403354
	O1121	O	0.545804	0.924533	0.341697
	C1122	C	0.175851	0.776578	0.397706
	C1123	C	0.204316	0.801912	0.394286
	C1124	C	0.207118	0.831056	0.388361
	C1125	C	0.181118	0.834790	0.384041
	C1126	C	0.151937	0.809234	0.385550
	C1127	C	0.149526	0.780321	0.392975
	C1128	C	0.227619	0.791271	0.397866
	C1129	C	0.180194	0.748676	0.405207
	N1130	N	0.211787	0.759100	0.404168
	O1131	O	0.161624	0.722429	0.411671
	O1132	O	0.254423	0.806061	0.394713
	C1133	C	0.191429	0.868356	0.377404
	C1134	C	0.235186	0.861673	0.387706
	N1135	N	0.224429	0.883381	0.380962
	O1136	O	0.262044	0.867776	0.392872
	O1137	O	0.176310	0.881499	0.370904
	C1138	C	0.116654	0.757386	0.397161
	C1139	C	0.120277	0.805645	0.384181
	N1140	N	0.099986	0.773877	0.390742
	O1141	O	0.112348	0.824695	0.379524
	O1142	O	0.105628	0.730159	0.405837
	C1143	C	0.454205	0.362669	0.321151
	C1144	C	0.453410	0.335598	0.320830
	C1145	C	0.424925	0.310983	0.307116
	C1146	C	0.397352	0.313764	0.292736
	C1147	C	0.397922	0.340672	0.294553
	C1148	C	0.426192	0.365024	0.308566
	C1149	C	0.486318	0.339400	0.335662
	C1150	C	0.487884	0.384707	0.336967
	N1151	N	0.506009	0.369326	0.344465
	O1152	O	0.498841	0.410346	0.342339
	O1153	O	0.495849	0.321656	0.339494
	C1154	C	0.370986	0.284181	0.279477
	C1155	C	0.417107	0.279272	0.305170
	N1156	N	0.384477	0.264425	0.287120
	O1157	O	0.433685	0.266927	0.317698
	O1158	O	0.343620	0.277160	0.264998
	C1159	C	0.419369	0.390073	0.308486
	C1160	C	0.372168	0.349712	0.283266
	N1161	N	0.386457	0.379291	0.293564
	O1162	O	0.344642	0.335792	0.268429
	O1163	O	0.436980	0.414637	0.318870
	F1164	F	0.672862	0.084930	0.413777
	C1165	C	0.677723	0.073101	0.385965
	C1166	C	0.664615	0.041658	0.391361
	F1167	F	0.647950	0.024328	0.424658
	C1168	C	0.669031	0.028114	0.363256
	C1169	C	0.686680	0.047179	0.329019
	F1170	F	0.691521	0.035088	0.301579
	C1171	C	0.699663	0.078654	0.323442
	F1172	F	0.715835	0.095854	0.289475
	C1173	C	0.696360	0.092244	0.353011
	F1174	F	0.691630	0.268416	0.278102
	C1175	C	0.701549	0.278539	0.318679
	C1176	C	0.696676	0.302276	0.320314
	F1177	F	0.682620	0.315174	0.280931
	C1178	C	0.706652	0.312950	0.362644
	C1179	C	0.719886	0.298054	0.403689
	F1180	F	0.728243	0.307087	0.444799
	C1181	C	0.724525	0.274206	0.402101
	F1182	F	0.736368	0.259640	0.441938
	C1183	C	0.717099	0.265377	0.358985
	F1184	F	0.332557	0.441401	0.215343
	C1185	C	0.342974	0.425541	0.255005
	C1186	C	0.359686	0.411456	0.253503
	F1187	F	0.366002	0.414331	0.212575
	C1188	C	0.369983	0.394234	0.294611
	C1189	C	0.363440	0.391693	0.337278
	F1190	F	0.372798	0.374986	0.376787
	C1191	C	0.347342	0.406325	0.338948
	F1192	F	0.341901	0.404305	0.380129
	C1193	C	0.336622	0.423147	0.297746
	F1194	F	0.308427	0.644602	0.213661
	C1195	C	0.318013	0.627218	0.251571
	C1196	C	0.310775	0.598029	0.249012
	F1197	F	0.294175	0.587393	0.208701
	C1198	C	0.320009	0.579233	0.288516
	C1199	C	0.339014	0.591255	0.329562
	F1200	F	0.349768	0.574380	0.366774
	C1201	C	0.346190	0.620445	0.332189
	F1202	F	0.363716	0.631581	0.371879
	C1203	C	0.334558	0.638205	0.293958
	F1204	F	0.052505	0.773782	0.310473
	C1205	C	0.044679	0.759350	0.352463
	C1206	C	0.013287	0.743663	0.354972
	F1207	F	-0.008798	0.743280	0.315412
	C1208	C	0.004478	0.727820	0.398330
	C1209	C	0.028036	0.729362	0.439411
	F1210	F	0.020229	0.714925	0.481436
	C1211	C	0.059419	0.745320	0.436968
	F1212	F	0.081545	0.746176	0.476657
	C1213	C	0.068193	0.760049	0.393353
	F1214	F	0.854505	0.561626	0.320824
	C1215	C	0.837920	0.544930	0.354225
	C1216	C	0.815039	0.515272	0.350359
	F1217	F	0.810633	0.503298	0.314279
	C1218	C	0.796258	0.497823	0.383565
	C1219	C	0.804632	0.508778	0.424957
	F1220	F	0.789632	0.491403	0.460108
	C1221	C	0.828355	0.537814	0.429669
	F1222	F	0.836843	0.547654	0.470002
	C1223	C	0.843015	0.557414	0.392360
	F1224	F	0.507693	0.842875	0.437619
	C1225	C	0.492846	0.840818	0.392349
	C1226	C	0.461360	0.820649	0.381480
	F1227	F	0.446157	0.803336	0.416504
	C1228	C	0.445496	0.817989	0.334347
	C1229	C	0.461516	0.837324	0.298265
	F1230	F	0.446251	0.836587	0.252943
	C1231	C	0.493221	0.857005	0.309195
	F1232	F	0.508465	0.874587	0.274314
	C1233	C	0.509463	0.858455	0.356442
	F1234	F	0.259736	0.749191	0.476880
	C1235	C	0.251677	0.740568	0.435472
	C1236	C	0.270238	0.731616	0.425307
	F1237	F	0.295496	0.730858	0.457572
	C1238	C	0.263178	0.724290	0.380962
	C1239	C	0.234043	0.720189	0.351328
	F1240	F	0.224553	0.709291	0.311550
	C1241	C	0.215107	0.728391	0.362082
	F1242	F	0.187537	0.724764	0.332882
	C1243	C	0.225262	0.741557	0.401889
	F1244	F	0.535866	0.399537	0.269420
	C1245	C	0.552885	0.394928	0.312878
	C1246	C	0.583932	0.401757	0.318730
	F1247	F	0.596706	0.412935	0.280887
	C1248	C	0.601844	0.396530	0.363851
	C1249	C	0.588862	0.387185	0.403292
	F1250	F	0.606500	0.385023	0.446976
	C1251	C	0.557567	0.379688	0.397370
	F1252	F	0.545048	0.369396	0.435289
	C1253	C	0.538891	0.382272	0.351923
	C1254	C	0.716313	0.433766	0.369964
	C1255	C	0.733421	0.419815	0.369655
	C1256	C	0.718487	0.388786	0.367835
	C1257	C	0.686719	0.371885	0.366858
	C1258	C	0.669677	0.385866	0.368323
	C1259	C	0.684262	0.416727	0.369266
	C1260	C	0.767070	0.443228	0.372289
	C1261	C	0.738307	0.466658	0.372313
	N1262	N	0.768644	0.470743	0.375125
	O1263	O	0.732991	0.486731	0.372075
	O1264	O	0.789278	0.440577	0.372796
	C1265	C	0.677649	0.339386	0.366916
	C1266	C	0.730516	0.368085	0.366050
	N1267	N	0.704689	0.338851	0.364225
	O1268	O	0.756475	0.373541	0.366426
	O1269	O	0.653318	0.317120	0.370275
	C1270	C	0.660167	0.425207	0.370305
	C1271	C	0.635574	0.373824	0.366518
	N1272	N	0.631350	0.398383	0.368427
	O1273	O	0.614834	0.348710	0.363229
	O1274	O	0.663112	0.449301	0.372024
	C1275	C	0.374641	0.745743	0.314822
	C1276	C	0.362915	0.759803	0.329697
	C1277	C	0.332983	0.743356	0.339657
	C1278	C	0.315507	0.712931	0.335760
	C1279	C	0.327127	0.699054	0.319712
	C1280	C	0.356351	0.715514	0.308415
	C1281	C	0.388090	0.791559	0.334831
	C1282	C	0.407776	0.767640	0.310765
	N1283	N	0.414769	0.794565	0.324137
	O1284	O	0.426113	0.764035	0.299892
	O1285	O	0.387380	0.811349	0.345861
	C1286	C	0.285253	0.700832	0.350391
	C1287	C	0.314703	0.751662	0.357769
	N1288	N	0.286442	0.725023	0.364354
	O1289	O	0.321162	0.775731	0.365276
	O1290	O	0.263649	0.675933	0.350190
	C1291	C	0.362946	0.694577	0.293837
	C1292	C	0.314816	0.666642	0.315685
	N1293	N	0.337155	0.665420	0.299527
	O1294	O	0.291564	0.644717	0.325481
	O1295	O	0.384735	0.699885	0.279470
	C1296	C	-0.009110	-0.042457	0.490348
	C1297	C	-0.039861	-0.059304	0.495545
	C1298	C	-0.048055	-0.085674	0.530272
	C1299	C	-0.025939	-0.096061	0.556893
	C1300	C	0.004546	-0.079976	0.549774
	C1301	C	0.013351	-0.052575	0.518095
	C1302	C	-0.058408	-0.043194	0.461095
	C1303	C	-0.006488	-0.013996	0.454836
	N1304	N	-0.036895	-0.015664	0.438153
	O1305	O	0.016238	0.007476	0.442606
	O1306	O	-0.085974	-0.051039	0.452249
	C1307	C	-0.041334	-0.125369	0.589020
	C1308	C	-0.077562	-0.106249	0.548409
	N1309	N	-0.072158	-0.129960	0.583262
	O1310	O	-0.101432	-0.104065	0.538059
	O1311	O	-0.031191	-0.142797	0.614559
	C1312	C	0.047818	-0.039442	0.521097
	C1313	C	0.032546	-0.085977	0.572979
	N1314	N	0.057782	-0.060945	0.554073
	O1315	O	0.034567	-0.107463	0.601329
	O1316	O	0.064930	-0.015679	0.501135
	F1317	F	-0.027469	0.065714	0.303298
	C1318	C	-0.037403	0.050927	0.343630
	C1319	C	-0.034510	0.024374	0.367086
	F1320	F	-0.022787	0.013807	0.347682
	C1321	C	-0.042959	0.009269	0.410896
	C1322	C	-0.055080	0.021152	0.429876
	F1323	F	-0.063609	0.007285	0.471458
	C1324	C	-0.057550	0.047834	0.406811
	F1325	F	-0.066595	0.059951	0.428192
	C1326	C	-0.049778	0.062564	0.362524
	F1327	F	0.830905	0.781644	0.560695
	C1328	C	0.856044	0.797878	0.590710
	C1329	C	0.878894	0.824829	0.572467
	F1330	F	0.875836	0.833430	0.525370
	C1331	C	0.904678	0.842908	0.602918
	C1332	C	0.907639	0.832566	0.652045
	F1333	F	0.931799	0.850013	0.681635
	C1334	C	0.885790	0.804327	0.670234
	F1335	F	0.890546	0.793598	0.716792
	C1336	C	0.858995	0.787288	0.639695
	F1337	F	0.154355	-0.061911	0.650562
	C1338	C	0.134887	-0.061777	0.608129
	C1339	C	0.107926	-0.059392	0.602954
	F1340	F	0.102535	-0.055302	0.639612
	C1341	C	0.086294	-0.061245	0.559499
	C1342	C	0.092154	-0.065515	0.521380
	F1343	F	0.071188	-0.068348	0.480098
	C1344	C	0.119610	-0.066676	0.526013
	F1345	F	0.125278	-0.070132	0.489003
	C1346	C	0.141579	-0.064133	0.569075
	C1347	C	-0.024253	0.169071	0.349234
	C1348	C	-0.039952	0.182622	0.355768
	C1349	C	-0.072173	0.165475	0.355572
	C1350	C	-0.087216	0.135583	0.348776
	C1351	C	-0.071579	0.122796	0.339602
	C1352	C	-0.040015	0.139485	0.340213
	C1353	C	-0.015353	0.213703	0.366956
	C1354	C	0.009886	0.190171	0.355799
	N1355	N	0.014245	0.216215	0.367953
	O1356	O	0.030700	0.186808	0.352178
	O1357	O	-0.018275	0.233577	0.373502
	C1358	C	-0.119277	0.120406	0.358211
	C1359	C	-0.095783	0.170726	0.366943
	N1360	N	-0.123021	0.142047	0.370722
	O1361	O	-0.093595	0.193720	0.372122
	O1362	O	-0.138418	0.094400	0.357853
	C1363	C	-0.028132	0.118649	0.338404
	C1364	C	-0.081388	0.090850	0.335773
	N1365	N	-0.053595	0.089213	0.339604
	O1366	O	-0.106852	0.069704	0.331401
	O1367	O	-0.002428	0.124226	0.337088
	C1368	C	0.748059	0.721090	0.608362
	C1369	C	0.730861	0.694798	0.588959
	C1370	C	0.745681	0.677791	0.590425
	C1371	C	0.777410	0.687676	0.610840
	C1372	C	0.794764	0.714667	0.628895
	C1373	C	0.780067	0.731212	0.627879
	C1374	C	0.697940	0.691424	0.568177
	C1375	C	0.727273	0.735414	0.600785
	N1376	N	0.697596	0.716930	0.575895
	O1377	O	0.733134	0.757780	0.613464
	O1378	O	0.675529	0.671830	0.548766
	C1379	C	0.787719	0.666750	0.605241
	C1380	C	0.734315	0.649053	0.572634
	N1381	N	0.761008	0.644023	0.582040
	O1382	O	0.708581	0.632724	0.553919
	O1383	O	0.813378	0.668060	0.616538
	C1384	C	0.804402	0.759724	0.646534
	C1385	C	0.829051	0.731760	0.649197
	N1386	N	0.833779	0.760005	0.654808
	O1387	O	0.849506	0.724312	0.659170
	O1388	O	0.801170	0.779558	0.652759
	C1389	C	0.225436	-0.087995	0.565792
	C1390	C	0.252056	-0.071276	0.546820
	C1391	C	0.263392	-0.039569	0.532816
	C1392	C	0.246836	-0.025950	0.536336
	C1393	C	0.218420	-0.043405	0.550600
	C1394	C	0.208144	-0.074271	0.566869
	C1395	C	0.261947	-0.093808	0.544636
	C1396	C	0.219324	-0.120513	0.580515
	N1397	N	0.240800	-0.123139	0.564936
	O1398	O	0.200495	-0.141337	0.602227
	O1399	O	0.282287	-0.089597	0.527898
	C1400	C	0.263734	0.007633	0.521508
	C1401	C	0.291413	-0.014363	0.512937
	N1402	N	0.290084	0.013470	0.507292
	O1403	O	0.311116	-0.015908	0.502296
	O1404	O	0.257815	0.027080	0.522600
	C1405	C	0.177294	-0.086902	0.580020
	C1406	C	0.194406	-0.035035	0.551352
	N1407	N	0.170610	-0.061973	0.570494
	O1408	O	0.194138	-0.010752	0.537362
	O1409	O	0.160797	-0.112640	0.595223
	F1410	F	0.888503	0.152433	0.461946
	C1411	C	0.859055	0.136512	0.440251
	C1412	C	0.835338	0.123536	0.465004
	F1413	F	0.842234	0.128229	0.509098
	C1414	C	0.804476	0.105382	0.444646
	C1415	C	0.798350	0.099942	0.399271
	F1416	F	0.769743	0.080162	0.380686
	C1417	C	0.821440	0.115227	0.372899
	F1418	F	0.813712	0.112644	0.327379
	C1419	C	0.852546	0.132777	0.393597
	F1420	F	0.046324	0.263438	0.302423
	C1421	C	0.061550	0.260412	0.347651
	C1422	C	0.093758	0.277902	0.359635
	F1423	F	0.109054	0.297653	0.325658
	C1424	C	0.110321	0.274896	0.406606
	C1425	C	0.093365	0.255081	0.441543
	F1426	F	0.108399	0.252856	0.487051
	C1427	C	0.061122	0.237385	0.429395
	F1428	F	0.045374	0.218092	0.463110
	C1429	C	0.044914	0.239042	0.381984
	F1430	F	0.766031	0.596158	0.652386
	C1431	C	0.769062	0.598692	0.609124
	C1432	C	0.780155	0.581116	0.601936
	F1433	F	0.788099	0.562012	0.638551
	C1434	C	0.783508	0.583597	0.556860
	C1435	C	0.770656	0.600226	0.518314
	F1436	F	0.767372	0.597906	0.474203
	C1437	C	0.761588	0.619430	0.525794
	F1438	F	0.752588	0.637785	0.488977
	C1439	C	0.762393	0.620065	0.571787
	F1440	F	0.676302	0.740803	0.481462
	C1441	C	0.664513	0.739134	0.515908
	C1442	C	0.644971	0.752693	0.505815
	F1443	F	0.638896	0.768030	0.462226
	C1444	C	0.631837	0.750672	0.541041
	C1445	C	0.637726	0.733744	0.586015
	F1446	F	0.624430	0.730638	0.619661
	C1447	C	0.657476	0.720479	0.596212
	F1448	F	0.662833	0.704410	0.639429
	C1449	C	0.672295	0.724252	0.561917
	F1450	F	0.198183	0.854895	0.485488
	C1451	C	0.208093	0.836339	0.520353
	C1452	C	0.192381	0.805366	0.520452
	F1453	F	0.167072	0.794308	0.486485
	C1454	C	0.202336	0.785438	0.556097
	C1455	C	0.229898	0.797695	0.589783
	F1456	F	0.241564	0.779474	0.621652
	C1457	C	0.245067	0.828714	0.590712
	F1458	F	0.270810	0.840020	0.623820
	C1459	C	0.233188	0.848083	0.557470
	F1460	F	0.343409	0.046489	0.569424
	C1461	C	0.335328	0.060793	0.525935
	C1462	C	0.349844	0.092374	0.514974
	F1463	F	0.371779	0.108355	0.548111
	C1464	C	0.341289	0.107701	0.469834
	C1465	C	0.319290	0.090554	0.435118
	F1466	F	0.311804	0.104604	0.391069
	C1467	C	0.304466	0.058998	0.446276
	F1468	F	0.282649	0.043075	0.412997
	C1469	C	0.311303	0.043805	0.492394
	C1470	C	0.687484	0.046651	0.525842
	C1471	C	0.707806	0.040043	0.515438
	C1472	C	0.734370	0.063651	0.498726
	C1473	C	0.739820	0.093550	0.491658
	C1474	C	0.718673	0.100165	0.500279
	C1475	C	0.693023	0.076958	0.518385
	C1476	C	0.694927	0.005986	0.524136
	C1477	C	0.661061	0.017015	0.541876
	N1478	N	0.666864	-0.006604	0.540017
	O1479	O	0.638899	0.012577	0.554350
	O1480	O	0.704538	-0.009204	0.518134
	C1481	C	0.768578	0.113817	0.471480
	C1482	C	0.760361	0.063913	0.484719
	N1483	N	0.779766	0.094809	0.467555
	O1484	O	0.764887	0.043055	0.486603
	O1485	O	0.780230	0.140949	0.459457
	C1486	C	0.675146	0.091173	0.524371
	C1487	C	0.717626	0.129767	0.492637
	N1488	N	0.690954	0.122975	0.507612
	O1489	O	0.734839	0.154856	0.476065
	O1490	O	0.652477	0.079471	0.540838
	C1491	C	0.249484	0.363387	0.446486
	C1492	C	0.219580	0.359569	0.441431
	C1493	C	0.193512	0.332011	0.432459
	C1494	C	0.197374	0.308534	0.427520
	C1495	C	0.227535	0.312717	0.430755
	C1496	C	0.253454	0.339855	0.440650
	C1497	C	0.221990	0.388418	0.447196
	C1498	C	0.272230	0.395141	0.455839
	N1499	N	0.254160	0.409101	0.455615
	O1500	O	0.300164	0.407678	0.462241
	O1501	O	0.201758	0.394679	0.444738
	C1502	C	0.165232	0.282478	0.417079
	C1503	C	0.159202	0.321614	0.427126
	N1504	N	0.143325	0.291726	0.417731
	O1505	O	0.146365	0.334859	0.430021
	O1506	O	0.157884	0.258226	0.409300
	C1507	C	0.282344	0.337169	0.444052
	C1508	C	0.238988	0.292057	0.426466
	N1509	N	0.272147	0.308062	0.434643
	O1510	O	0.224281	0.266903	0.417605
	O1511	O	0.309298	0.355187	0.452981
	C1512	C	0.853896	0.515136	0.564485
	C1513	C	0.824665	0.511886	0.562313
	C1514	C	0.820514	0.537460	0.557455
	C1515	C	0.845699	0.566184	0.555010
	C1516	C	0.875545	0.569477	0.558687
	C1517	C	0.879468	0.544110	0.562795
	C1518	C	0.801828	0.478815	0.564386
	C1519	C	0.850651	0.484114	0.567303
	N1520	N	0.818662	0.463349	0.566440
	O1521	O	0.870035	0.476974	0.568928
	O1522	O	0.774420	0.466393	0.564049
	C1523	C	0.834158	0.588556	0.551506
	C1524	C	0.791950	0.540435	0.554560
	N1525	N	0.801723	0.571634	0.551805
	O1526	O	0.765737	0.521079	0.555622
	O1527	O	0.848440	0.615526	0.549740
	C1528	C	0.913262	0.554473	0.564493
	C1529	C	0.906624	0.597104	0.555967
	N1530	N	0.928559	0.586496	0.560882
	O1531	O	0.912815	0.623427	0.549312
	O1532	O	0.926103	0.539759	0.567493
	C1533	C	0.561567	0.816979	0.542229
	C1534	C	0.591121	0.821015	0.543982
	C1535	C	0.594968	0.797493	0.538096
	C1536	C	0.569008	0.770213	0.529751
	C1537	C	0.539305	0.766003	0.528337
	C1538	C	0.535377	0.789117	0.534580
	C1539	C	0.614183	0.853110	0.549885
	C1540	C	0.565287	0.845816	0.550907
	N1541	N	0.597569	0.866721	0.555188
	O1542	O	0.546165	0.851602	0.554514
	O1543	O	0.641424	0.866500	0.548964
	C1544	C	0.579680	0.749054	0.525490
	C1545	C	0.623390	0.794844	0.539030
	N1546	N	0.612636	0.764925	0.532279
	O1547	O	0.650400	0.813123	0.544827
	O1548	O	0.564663	0.723494	0.518269
	C1549	C	0.500742	0.777886	0.529004
	C1550	C	0.507911	0.739348	0.519211
	N1551	N	0.485625	0.747705	0.519998
	O1552	O	0.501282	0.715089	0.512135
	O1553	O	0.487215	0.790673	0.531039
	C1554	C	0.123247	0.657319	0.512933
	C1555	C	0.152640	0.681954	0.514098
	C1556	C	0.160114	0.707122	0.531966
	C1557	C	0.138240	0.707507	0.549036
	C1558	C	0.108118	0.683125	0.546372
	C1559	C	0.100807	0.658033	0.528951
	C1560	C	0.171770	0.675249	0.495070
	C1561	C	0.122320	0.634177	0.491654
	N1562	N	0.152362	0.646365	0.481950
	O1563	O	0.101448	0.609927	0.483807
	O1564	O	0.198522	0.690148	0.491338
	C1565	C	0.152999	0.737339	0.565337
	C1566	C	0.189104	0.736845	0.535256
	N1567	N	0.183761	0.753894	0.556443
	O1568	O	0.212496	0.746343	0.521609
	O1569	O	0.142592	0.746989	0.582705
	C1570	C	0.067241	0.635795	0.530335
	C1571	C	0.079461	0.677701	0.559666
	N1572	N	0.055607	0.648934	0.548932
	O1573	O	0.075913	0.693710	0.575807
	O1574	O	0.051909	0.611393	0.518698
	C1575	C	0.415631	0.246074	0.435395
	C1576	C	0.416599	0.218970	0.440748
	C1577	C	0.390344	0.191114	0.447404
	C1578	C	0.363091	0.190281	0.449449
	C1579	C	0.362192	0.217574	0.445402
	C1580	C	0.388119	0.245333	0.438075
	C1581	C	0.448660	0.225767	0.438891
	C1582	C	0.447621	0.271506	0.429350
	N1583	N	0.466417	0.257635	0.432266
	O1584	O	0.456464	0.298397	0.422602
	O1585	O	0.458751	0.208440	0.442991
	C1586	C	0.339800	0.157277	0.459121
	C1587	C	0.385104	0.159124	0.452749
	N1588	N	0.354383	0.139792	0.459946
	O1589	O	0.402301	0.150239	0.450940
	O1590	O	0.313987	0.146259	0.465826
	C1591	C	0.379432	0.270039	0.433821
	C1592	C	0.336235	0.223541	0.445831
	N1593	N	0.348011	0.255489	0.439430
	O1594	O	0.310215	0.205638	0.450758
	O1595	O	0.394960	0.297052	0.426674
	F1596	F	0.664863	-0.045117	0.629470
	C1597	C	0.646904	-0.057164	0.590648
	C1598	C	0.629533	-0.088628	0.594709
	F1599	F	0.630860	-0.106461	0.637399
	C1600	C	0.610707	-0.101736	0.554498
	C1601	C	0.607223	-0.082447	0.511260
	F1602	F	0.587027	-0.094396	0.473268
	C1603	C	0.624810	-0.051126	0.507108
	F1604	F	0.621585	-0.033480	0.464779
	C1605	C	0.646006	-0.038045	0.546329
	F1606	F	0.658241	0.146803	0.425906
	C1607	C	0.667309	0.157835	0.465364
	C1608	C	0.662342	0.182108	0.464372
	F1609	F	0.649746	0.195203	0.423389
	C1610	C	0.670648	0.193210	0.505790
	C1611	C	0.683911	0.179219	0.548077
	F1612	F	0.690909	0.188404	0.588624
	C1613	C	0.690656	0.156329	0.548361
	F1614	F	0.705602	0.145088	0.588596
	C1615	C	0.682455	0.145204	0.507143
	F1616	F	0.297836	0.320950	0.357626
	C1617	C	0.304212	0.302250	0.396839
	C1618	C	0.322733	0.289216	0.398002
	F1619	F	0.333615	0.295311	0.359785
	C1620	C	0.330343	0.269965	0.438631
	C1621	C	0.318885	0.264402	0.478183
	F1622	F	0.326358	0.246735	0.518050
	C1623	C	0.299858	0.276911	0.476744
	F1624	F	0.288865	0.270711	0.514901
	C1625	C	0.292045	0.295940	0.435973
	F1626	F	0.297323	0.515121	0.386462
	C1627	C	0.284462	0.493050	0.420919
	C1628	C	0.278691	0.463478	0.422942
	F1629	F	0.286084	0.457600	0.390362
	C1630	C	0.265054	0.439808	0.458305
	C1631	C	0.259576	0.447153	0.493634
	F1632	F	0.248863	0.425557	0.530101
	C1633	C	0.264929	0.476646	0.491186
	F1634	F	0.258808	0.482928	0.524787
	C1635	C	0.276574	0.499908	0.453974
	F1636	F	0.008591	0.653769	0.472110
	C1637	C	0.000762	0.637289	0.513512
	C1638	C	-0.030538	0.621962	0.516452
	F1639	F	-0.052603	0.623470	0.477765
	C1640	C	-0.039386	0.604696	0.559308
	C1641	C	-0.015758	0.604609	0.599750
	F1642	F	-0.023456	0.589547	0.641674
	C1643	C	0.015551	0.619658	0.596738
	F1644	F	0.037643	0.618634	0.635679
	C1645	C	0.024214	0.635645	0.553317
	F1646	F	0.810250	0.447406	0.481561
	C1647	C	0.796244	0.425986	0.515633
	C1648	C	0.773670	0.397429	0.505806
	F1649	F	0.765895	0.391413	0.462454
	C1650	C	0.758330	0.374957	0.540683
	C1651	C	0.769387	0.380229	0.587234
	F1652	F	0.757570	0.357525	0.621873
	C1653	C	0.791982	0.408851	0.597111
	F1654	F	0.802343	0.413918	0.641513
	C1655	C	0.803610	0.432723	0.560467
	F1656	F	0.451057	0.707665	0.589049
	C1657	C	0.436983	0.707037	0.543271
	C1658	C	0.406760	0.684544	0.530615
	F1659	F	0.391742	0.663533	0.564106
	C1660	C	0.391830	0.683303	0.482856
	C1661	C	0.407451	0.705755	0.448214
	F1662	F	0.393215	0.705339	0.402461
	C1663	C	0.437600	0.728227	0.460780
	F1664	F	0.452049	0.749383	0.426853
	C1665	C	0.453145	0.728605	0.508420
	F1666	F	0.172550	0.604658	0.545057
	C1667	C	0.176631	0.612933	0.500643
	C1668	C	0.194632	0.604116	0.488749
	F1669	F	0.207845	0.587443	0.521820
	C1670	C	0.199906	0.613297	0.442813
	C1671	C	0.184040	0.628770	0.407927
	F1672	F	0.186633	0.635610	0.362942
	C1673	C	0.166198	0.637796	0.419926
	F1674	F	0.151933	0.653356	0.386368
	C1675	C	0.163756	0.631429	0.466997
	F1676	F	0.489919	0.261157	0.358266
	C1677	C	0.509898	0.270588	0.398135
	C1678	C	0.541348	0.278547	0.404259
	F1679	F	0.551438	0.278270	0.369297
	C1680	C	0.562376	0.286093	0.447098
	C1681	C	0.551925	0.289453	0.480925
	F1682	F	0.572019	0.298799	0.520809
	C1683	C	0.520702	0.282625	0.474027
	F1684	F	0.511257	0.285911	0.506974
	C1685	C	0.498902	0.271536	0.433685
	C1686	C	0.678580	0.315497	0.500450
	C1687	C	0.695736	0.299182	0.514210
	C1688	C	0.680808	0.268707	0.509176
	C1689	C	0.648743	0.254476	0.491865
	C1690	C	0.631174	0.270476	0.480819
	C1691	C	0.646035	0.300910	0.484520
	C1692	C	0.729410	0.319803	0.532940
	C1693	C	0.700875	0.347544	0.507853
	N1694	N	0.730958	0.348589	0.528116
	O1695	O	0.696000	0.369271	0.497971
	O1696	O	0.751400	0.314265	0.549789
	C1697	C	0.639627	0.222159	0.490477
	C1698	C	0.693469	0.246402	0.518486
	N1699	N	0.667826	0.219138	0.505055
	O1700	O	0.719849	0.249673	0.533964
	O1701	O	0.614280	0.201987	0.479433
	C1702	C	0.621569	0.312143	0.469208
	C1703	C	0.596645	0.261059	0.463859
	N1704	N	0.592233	0.287002	0.457946
	O1705	O	0.575722	0.236586	0.457157
	O1706	O	0.625120	0.337161	0.466965
	C1707	C	0.320674	0.611921	0.455161
	C1708	C	0.307514	0.630955	0.449115
	C1709	C	0.275027	0.619242	0.440964
	C1710	C	0.255791	0.588974	0.436791
	C1711	C	0.269018	0.570123	0.440209
	C1712	C	0.301339	0.581364	0.450718
	C1713	C	0.333445	0.662035	0.456195
	C1714	C	0.355650	0.629858	0.468743
	N1715	N	0.361787	0.659651	0.469597
	O1716	O	0.375627	0.621896	0.478198
	O1717	O	0.332108	0.685317	0.450756
	C1718	C	0.222515	0.583034	0.430502
	C1719	C	0.255244	0.633036	0.441080
	N1720	N	0.223914	0.610334	0.434405
	O1721	O	0.263127	0.657801	0.447733
	O1722	O	0.198703	0.560326	0.424050
	C1723	C	0.308839	0.555646	0.456969
	C1724	C	0.254741	0.536744	0.439355
	N1725	N	0.279921	0.529375	0.449761
	O1726	O	0.227808	0.518507	0.432046
	O1727	O	0.333762	0.555657	0.466784
	C1728	C	0.003698	0.080328	0.523115
	C1729	C	-0.024004	0.064641	0.539065
	C1730	C	-0.035428	0.033351	0.557044
	C1731	C	-0.018898	0.018195	0.559149
	C1732	C	0.008986	0.034089	0.542999
	C1733	C	0.020182	0.064982	0.524842
	C1734	C	-0.035055	0.087379	0.535698
	C1735	C	0.010625	0.113273	0.507089
	N1736	N	-0.012557	0.116295	0.517877
	O1737	O	0.030767	0.133950	0.487793
	O1738	O	-0.057895	0.083608	0.545384
	C1739	C	-0.036745	-0.014883	0.578828
	C1740	C	-0.063283	0.010813	0.578663
	N1741	N	-0.063035	-0.017876	0.590280
	O1742	O	-0.082277	0.014834	0.586829
	O1743	O	-0.031328	-0.035728	0.583643
	C1744	C	0.051302	0.076158	0.513571
	C1745	C	0.032759	0.024498	0.544835
	N1746	N	0.057472	0.050649	0.526235
	O1747	O	0.032082	-0.000168	0.559280
	O1748	O	0.068518	0.101267	0.497362
	F1749	F	-0.048154	0.193425	0.458435
	C1750	C	-0.028593	0.182794	0.489744
	C1751	C	-0.030634	0.155557	0.487165
	F1752	F	-0.052375	0.139811	0.453679
	C1753	C	-0.010074	0.144374	0.519380
	C1754	C	0.013041	0.161401	0.553666
	F1755	F	0.033353	0.151332	0.584048
	C1756	C	0.014969	0.188541	0.556351
	F1757	F	0.037288	0.204770	0.588900
	C1758	C	-0.006397	0.199125	0.525198
	F1759	F	0.832650	0.900989	0.585764
	C1760	C	0.861840	0.914938	0.610067
	C1761	C	0.884158	0.940174	0.587150
	F1762	F	0.876289	0.950686	0.540956
	C1763	C	0.914870	0.954887	0.612085
	C1764	C	0.923139	0.942467	0.659655
	F1765	F	0.952754	0.954631	0.683640
	C1766	C	0.900827	0.917525	0.682661
	F1767	F	0.909243	0.906486	0.728479
	C1768	C	0.869742	0.903899	0.658502
	F1769	F	0.154238	0.053182	0.624787
	C1770	C	0.135735	0.053712	0.581414
	C1771	C	0.106557	0.051786	0.575537
	F1772	F	0.097199	0.049531	0.613257
	C1773	C	0.086939	0.052521	0.530517
	C1774	C	0.097311	0.055316	0.491394
	F1775	F	0.079291	0.056981	0.447903
	C1776	C	0.126397	0.056722	0.497410
	F1777	F	0.135866	0.058896	0.459919
	C1778	C	0.146046	0.056217	0.542475
	C1779	C	0.026797	0.303124	0.553115
	C1780	C	0.015926	0.313866	0.576164
	C1781	C	-0.012020	0.294582	0.591908
	C1782	C	-0.028079	0.264585	0.585567
	C1783	C	-0.017314	0.253934	0.561807
	C1784	C	0.009918	0.273185	0.545142
	C1785	C	0.040235	0.345623	0.582969
	C1786	C	0.058432	0.327319	0.544951
	N1787	N	0.065708	0.351914	0.564999
	O1788	O	0.075727	0.326908	0.526718
	O1789	O	0.039856	0.363102	0.600365
	C1790	C	-0.056115	0.248836	0.607244
	C1791	C	-0.029097	0.298898	0.618932
	N1792	N	-0.055393	0.270444	0.627085
	O1793	O	-0.023162	0.321215	0.631629
	O1794	O	-0.075939	0.222990	0.608390
	C1795	C	0.016374	0.255205	0.523328
	C1796	C	-0.027777	0.222452	0.555132
	N1797	N	-0.006803	0.224662	0.531632
	O1798	O	-0.048511	0.198878	0.568545
	O1799	O	0.036389	0.263367	0.502670
	C1800	C	0.789110	0.840587	0.760224
	C1801	C	0.778538	0.811036	0.786005
	C1802	C	0.791061	0.792317	0.786029
	C1803	C	0.813682	0.803849	0.759875
	C1804	C	0.823096	0.832970	0.732140
	C1805	C	0.811020	0.851506	0.732557
	C1806	C	0.754166	0.806143	0.809629
	C1807	C	0.771657	0.855200	0.765464
	N1808	N	0.750712	0.833437	0.794978
	O1809	O	0.773579	0.880214	0.748406
	O1810	O	0.739974	0.784205	0.835958
	C1811	C	0.823669	0.780230	0.766026
	C1812	C	0.785706	0.760011	0.809892
	N1813	N	0.806371	0.754434	0.796222
	O1814	O	0.768492	0.741774	0.835814
	O1815	O	0.842855	0.781363	0.749960
	C1816	C	0.826603	0.881814	0.701934
	C1817	C	0.846065	0.850130	0.700209
	N1818	N	0.847327	0.879411	0.683427
	O1819	O	0.861156	0.842239	0.689353
	O1820	O	0.823531	0.904438	0.693524
	C1821	C	0.241198	0.038035	0.616535
	C1822	C	0.273138	0.056798	0.627350
	C1823	C	0.284158	0.088338	0.611928
	C1824	C	0.263078	0.100176	0.585548
	C1825	C	0.231106	0.080967	0.573193
	C1826	C	0.220093	0.049934	0.589312
	C1827	C	0.288974	0.036861	0.657648
	C1828	C	0.235490	0.006092	0.639054
	N1829	N	0.264726	0.006462	0.663097
	O1830	O	0.211388	-0.016847	0.638682
	O1831	O	0.316096	0.043689	0.674807
	C1832	C	0.280556	0.134186	0.576446
	C1833	C	0.316076	0.114817	0.621273
	N1834	N	0.312145	0.141723	0.599750
	O1835	O	0.340712	0.114850	0.642677
	O1836	O	0.271077	0.152764	0.555257
	C1837	C	0.184927	0.035247	0.574405
	C1838	C	0.203417	0.087473	0.548042
	N1839	N	0.176361	0.059098	0.549998
	O1840	O	0.202632	0.111327	0.529907
	O1841	O	0.166313	0.009036	0.581640
	F1842	F	0.949546	0.263930	0.725233
	C1843	C	0.922086	0.259338	0.694980
	C1844	C	0.895655	0.248863	0.712400
	F1845	F	0.897798	0.243206	0.759161
	C1846	C	0.866786	0.244159	0.681246
	C1847	C	0.865359	0.251831	0.632393
	F1848	F	0.838216	0.248808	0.602081
	C1849	C	0.891642	0.262181	0.615057
	F1850	F	0.889755	0.269398	0.568184
	C1851	C	0.919991	0.264745	0.646113
	F1852	F	0.095970	0.402875	0.500250
	C1853	C	0.112124	0.397981	0.544306
	C1854	C	0.144149	0.416244	0.556155
	F1855	F	0.158797	0.438356	0.523197
	C1856	C	0.161378	0.411567	0.602247
	C1857	C	0.145598	0.389021	0.636646
	F1858	F	0.161597	0.385077	0.681152
	C1859	C	0.113720	0.370443	0.624659
	F1860	F	0.099108	0.348541	0.657856
	C1861	C	0.096794	0.374058	0.577983
	F1862	F	0.843953	0.735654	0.880096
	C1863	C	0.834036	0.723626	0.841406
	C1864	C	0.848244	0.708073	0.836336
	F1865	F	0.871481	0.704625	0.870817
	C1866	C	0.838621	0.696462	0.794989
	C1867	C	0.810844	0.695699	0.763664
	F1868	F	0.798252	0.681049	0.727232
	C1869	C	0.796354	0.710729	0.769217
	F1870	F	0.770154	0.710259	0.738544
	C1871	C	0.810072	0.727792	0.805137
	F1872	F	0.695327	0.818128	0.727789
	C1873	C	0.700549	0.833949	0.759453
	C1874	C	0.681260	0.847144	0.752932
	F1875	F	0.658097	0.844458	0.714267
	C1876	C	0.686075	0.863498	0.785882
	C1877	C	0.709244	0.864192	0.827340
	F1878	F	0.712635	0.877429	0.861268
	C1879	C	0.729105	0.851616	0.833235
	F1880	F	0.751457	0.852840	0.872627
	C1881	C	0.726132	0.837995	0.797852
	F1882	F	0.290704	0.979685	0.633306
	C1883	C	0.273705	0.963842	0.666430
	C1884	C	0.262044	0.932340	0.677829
	F1885	F	0.268408	0.918512	0.655477
	C1886	C	0.243206	0.915244	0.711154
	C1887	C	0.241517	0.931067	0.738818
	F1888	F	0.228182	0.915981	0.776164
	C1889	C	0.252776	0.962487	0.726998
	F1890	F	0.249349	0.977010	0.752226
	C1891	C	0.266290	0.978812	0.687558
	F1892	F	0.312083	0.162623	0.672589
	C1893	C	0.330912	0.182054	0.642771
	C1894	C	0.347460	0.212618	0.646152
	F1895	F	0.344005	0.222276	0.678612
	C1896	C	0.367747	0.233433	0.616126
	C1897	C	0.371510	0.222603	0.583208
	F1898	F	0.390973	0.241943	0.554224
	C1899	C	0.355006	0.191932	0.579951
	F1900	F	0.359769	0.181949	0.549407
	C1901	C	0.333510	0.171488	0.608335
	C1902	C	0.730040	0.175121	0.688922
	C1903	C	0.756081	0.172186	0.690991
	C1904	C	0.785796	0.196927	0.694767
	C1905	C	0.789434	0.225064	0.695570
	C1906	C	0.763130	0.228481	0.692098
	C1907	C	0.733675	0.203659	0.689685
	C1908	C	0.746184	0.140096	0.689374
	C1909	C	0.702105	0.144468	0.684677
	N1910	N	0.713597	0.123968	0.686372
	O1911	O	0.675046	0.137274	0.680110
	O1912	O	0.762146	0.129007	0.690343
	C1913	C	0.823288	0.247377	0.696716
	C1914	C	0.817174	0.199728	0.697390
	N1915	N	0.838626	0.230798	0.696848
	O1916	O	0.824138	0.180434	0.699166
	O1917	O	0.836237	0.274097	0.696984
	C1918	C	0.710722	0.214598	0.687210
	C1919	C	0.760170	0.255810	0.692012
	N1920	N	0.728206	0.246062	0.689360
	O1921	O	0.779861	0.281455	0.694004
	O1922	O	0.683017	0.200895	0.684114
	C1923	C	0.300350	0.499115	0.625061
	C1924	C	0.271246	0.496848	0.621273
	C1925	C	0.244718	0.468708	0.620318
	C1926	C	0.247547	0.442814	0.624161
	C1927	C	0.276805	0.445016	0.627778
	C1928	C	0.303028	0.473074	0.627606
	C1929	C	0.275265	0.527786	0.619722
	C1930	C	0.323859	0.532078	0.623592
	N1931	N	0.307300	0.548027	0.621089
	O1932	O	0.351117	0.544056	0.623584
	O1933	O	0.256326	0.535489	0.618333
	C1934	C	0.215460	0.416441	0.620620
	C1935	C	0.210779	0.459806	0.614870
	N1936	N	0.194271	0.428310	0.613458
	O1937	O	0.198767	0.475173	0.612303
	O1938	O	0.207870	0.390079	0.623689
	C1939	C	0.330563	0.468370	0.630792
	C1940	C	0.286694	0.421318	0.632097
	N1941	N	0.319010	0.436892	0.632220
	O1942	O	0.271450	0.394325	0.634999
	O1943	O	0.357303	0.486579	0.631285
	C1944	C	0.896646	0.639542	0.732074
	C1945	C	0.870261	0.634800	0.743752
	C1946	C	0.869971	0.657611	0.758266
	C1947	C	0.895731	0.685788	0.759616
	C1948	C	0.922713	0.690760	0.748200
	C1949	C	0.923192	0.667716	0.734904
	C1950	C	0.845353	0.603509	0.737515
	C1951	C	0.890214	0.609972	0.721755
	N1952	N	0.858822	0.589039	0.726049
	O1953	O	0.907040	0.603563	0.712469
	O1954	O	0.818691	0.591567	0.741178
	C1955	C	0.887546	0.705214	0.775284
	C1956	C	0.845062	0.657484	0.774196
	N1957	N	0.856634	0.686676	0.783756
	O1958	O	0.819871	0.637059	0.779050
	O1959	O	0.902690	0.731219	0.780139
	C1960	C	0.954782	0.679522	0.724879
	C1961	C	0.954212	0.717991	0.747533
	N1962	N	0.972582	0.709631	0.733865
	O1963	O	0.963564	0.742424	0.756645
	O1964	O	0.964482	0.667050	0.711859
	C1965	C	0.619660	0.944561	0.708998
	C1966	C	0.649173	0.945593	0.727339
	C1967	C	0.652145	0.918419	0.745143
	C1968	C	0.625542	0.890746	0.745625
	C1969	C	0.595859	0.889811	0.728116
	C1970	C	0.592852	0.916558	0.709478
	C1971	C	0.672931	0.978591	0.722900
	C1972	C	0.623403	0.976611	0.692788
	N1973	N	0.655899	0.996082	0.702849
	O1974	O	0.603755	0.985438	0.675035
	O1975	O	0.700888	0.989624	0.733615
	C1976	C	0.635294	0.865648	0.767184
	C1977	C	0.680038	0.911717	0.763135
	N1978	N	0.668269	0.879494	0.775684
	O1979	O	0.707212	0.928982	0.765901
	O1980	O	0.619108	0.838804	0.776259
	C1981	C	0.558460	0.908314	0.692550
	C1982	C	0.563728	0.863553	0.723781
	N1983	N	0.542245	0.876046	0.701452
	O1984	O	0.556297	0.836849	0.736688
	O1985	O	0.545804	0.924533	0.675030
	C1986	C	0.175851	0.776578	0.731039
	C1987	C	0.204316	0.801912	0.727619
	C1988	C	0.207118	0.831056	0.721694
	C1989	C	0.181118	0.834790	0.717374
	C1990	C	0.151937	0.809234	0.718884
	C1991	C	0.149526	0.780321	0.726308
	C1992	C	0.227619	0.791271	0.731199
	C1993	C	0.180194	0.748676	0.738541
	N1994	N	0.211787	0.759100	0.737502
	O1995	O	0.161624	0.722429	0.745005
	O1996	O	0.254423	0.806061	0.728047
	C1997	C	0.191429	0.868356	0.710737
	C1998	C	0.235186	0.861673	0.721040
	N1999	N	0.224429	0.883381	0.714296
	O2000	O	0.262044	0.867776	0.726206
	O2001	O	0.176310	0.881499	0.704237
	C2002	C	0.116654	0.757386	0.730495
	C2003	C	0.120277	0.805645	0.717515
	N2004	N	0.099986	0.773877	0.724075
	O2005	O	0.112348	0.824695	0.712858
	O2006	O	0.105628	0.730159	0.739170
	C2007	C	0.454205	0.362669	0.654484
	C2008	C	0.453410	0.335598	0.654164
	C2009	C	0.424925	0.310983	0.640449
	C2010	C	0.397352	0.313764	0.626069
	C2011	C	0.397922	0.340672	0.627886
	C2012	C	0.426192	0.365024	0.641899
	C2013	C	0.486318	0.339400	0.668995
	C2014	C	0.487884	0.384707	0.670301
	N2015	N	0.506009	0.369326	0.677798
	O2016	O	0.498841	0.410346	0.675672
	O2017	O	0.495849	0.321656	0.672827
	C2018	C	0.370986	0.284181	0.612810
	C2019	C	0.417107	0.279272	0.638503
	N2020	N	0.384477	0.264425	0.620453
	O2021	O	0.433685	0.266927	0.651031
	O2022	O	0.343620	0.277160	0.598332
	C2023	C	0.419369	0.390073	0.641820
	C2024	C	0.372168	0.349712	0.616600
	N2025	N	0.386457	0.379291	0.626898
	O2026	O	0.344642	0.335792	0.601762
	O2027	O	0.436980	0.414637	0.652203
	F2028	F	0.672862	0.084930	0.747111
	C2029	C	0.677723	0.073101	0.719298
	C2030	C	0.664615	0.041658	0.724694
	F2031	F	0.647950	0.024328	0.757991
	C2032	C	0.669031	0.028114	0.696590
	C2033	C	0.686680	0.047179	0.662352
	F2034	F	0.691521	0.035088	0.634913
	C2035	C	0.699663	0.078654	0.656775
	F2036	F	0.715835	0.095854	0.622809
	C2037	C	0.696360	0.092244	0.686344
	F2038	F	0.691630	0.268416	0.611436
	C2039	C	0.701549	0.278539	0.652012
	C2040	C	0.696676	0.302276	0.653647
	F2041	F	0.682620	0.315174	0.614264
	C2042	C	0.706652	0.312950	0.695977
	C2043	C	0.719886	0.298054	0.737022
	F2044	F	0.728243	0.307087	0.778132
	C2045	C	0.724525	0.274206	0.735434
	F2046	F	0.736368	0.259640	0.775272
	C2047	C	0.717099	0.265377	0.692318
	F2048	F	0.332557	0.441401	0.548676
	C2049	C	0.342974	0.425541	0.588339
	C2050	C	0.359686	0.411456	0.586836
	F2051	F	0.366002	0.414331	0.545908
	C2052	C	0.369983	0.394234	0.627944
	C2053	C	0.363440	0.391693	0.670611
	F2054	F	0.372798	0.374986	0.710120
	C2055	C	0.347342	0.406325	0.672281
	F2056	F	0.341901	0.404305	0.713462
	C2057	C	0.336622	0.423147	0.631079
	F2058	F	0.308427	0.644602	0.546994
	C2059	C	0.318013	0.627218	0.584904
	C2060	C	0.310775	0.598029	0.582345
	F2061	F	0.294175	0.587393	0.542035
	C2062	C	0.320009	0.579233	0.621849
	C2063	C	0.339014	0.591255	0.662896
	F2064	F	0.349768	0.574380	0.700107
	C2065	C	0.346190	0.620445	0.665522
	F2066	F	0.363716	0.631581	0.705212
	C2067	C	0.334558	0.638205	0.627292
	F2068	F	0.052505	0.773782	0.643806
	C2069	C	0.044679	0.759350	0.685796
	C2070	C	0.013287	0.743663	0.688305
	F2071	F	-0.008798	0.743280	0.648746
	C2072	C	0.004478	0.727820	0.731663
	C2073	C	0.028036	0.729362	0.772745
	F2074	F	0.020229	0.714925	0.814769
	C2075	C	0.059419	0.745320	0.770302
	F2076	F	0.081545	0.746176	0.809991
	C2077	C	0.068193	0.760049	0.726686
	F2078	F	0.854505	0.561626	0.654157
	C2079	C	0.837920	0.544930	0.687558
	C2080	C	0.815039	0.515272	0.683692
	F2081	F	0.810633	0.503298	0.647612
	C2082	C	0.796258	0.497823	0.716898
	C2083	C	0.804632	0.508778	0.758291
	F2084	F	0.789632	0.491403	0.793441
	C2085	C	0.828355	0.537814	0.763002
	F2086	F	0.836843	0.547654	0.803336
	C2087	C	0.843015	0.557414	0.725693
	F2088	F	0.507693	0.842875	0.770952
	C2089	C	0.492846	0.840818	0.725683
	C2090	C	0.461360	0.820649	0.714813
	F2091	F	0.446157	0.803336	0.749837
	C2092	C	0.445496	0.817989	0.667680
	C2093	C	0.461516	0.837324	0.631599
	F2094	F	0.446251	0.836587	0.586276
	C2095	C	0.493221	0.857005	0.642528
	F2096	F	0.508465	0.874587	0.607647
	C2097	C	0.509463	0.858455	0.689775
	F2098	F	0.259736	0.749191	0.810213
	C2099	C	0.251677	0.740568	0.768805
	C2100	C	0.270238	0.731616	0.758640
	F2101	F	0.295496	0.730858	0.790905
	C2102	C	0.263178	0.724290	0.714295
	C2103	C	0.234043	0.720189	0.684661
	F2104	F	0.224553	0.709291	0.644883
	C2105	C	0.215107	0.728391	0.695416
	F2106	F	0.187537	0.724764	0.666215
	C2107	C	0.225262	0.741557	0.735222
	F2108	F	0.535866	0.399537	0.602753
	C2109	C	0.552885	0.394928	0.646211
	C2110	C	0.583932	0.401757	0.652064
	F2111	F	0.596706	0.412935	0.614221
	C2112	C	0.601844	0.396530	0.697185
	C2113	C	0.588862	0.387185	0.736626
	F2114	F	0.606500	0.385023	0.780309
	C2115	C	0.557567	0.379688	0.730703
	F2116	F	0.545048	0.369396	0.768623
	C2117	C	0.538891	0.382272	0.685256
	C2118	C	0.716313	0.433766	0.703297
	C2119	C	0.733421	0.419815	0.702989
	C2120	C	0.718487	0.388786	0.701169
	C2121	C	0.686719	0.371885	0.700191
	C2122	C	0.669677	0.385866	0.701656
	C2123	C	0.684262	0.416727	0.702599
	C2124	C	0.767070	0.443228	0.705622
	C2125	C	0.738307	0.466658	0.705647
	N2126	N	0.768644	0.470743	0.708458
	O2127	O	0.732991	0.486731	0.705408
	O2128	O	0.789278	0.440577	0.706130
	C2129	C	0.677649	0.339386	0.700250
	C2130	C	0.730516	0.368085	0.699383
	N2131	N	0.704689	0.338851	0.697558
	O2132	O	0.756475	0.373541	0.699759
	O2133	O	0.653318	0.317120	0.703608
	C2134	C	0.660167	0.425207	0.703638
	C2135	C	0.635574	0.373824	0.699851
	N2136	N	0.631350	0.398383	0.701760
	O2137	O	0.614834	0.348710	0.696562
	O2138	O	0.663112	0.449301	0.705358
	C2139	C	0.374641	0.745743	0.648156
	C2140	C	0.362915	0.759803	0.663030
	C2141	C	0.332983	0.743356	0.672991
	C2142	C	0.315507	0.712931	0.669093
	C2143	C	0.327127	0.699054	0.653045
	C2144	C	0.356351	0.715514	0.641749
	C2145	C	0.388090	0.791559	0.668164
	C2146	C	0.407776	0.767640	0.644098
	N2147	N	0.414769	0.794565	0.657470
	O2148	O	0.426113	0.764035	0.633225
	O2149	O	0.387380	0.811349	0.679194
	C2150	C	0.285253	0.700832	0.683725
	C2151	C	0.314703	0.751662	0.691103
	N2152	N	0.286442	0.725023	0.697688
	O2153	O	0.321162	0.775731	0.698609
	O2154	O	0.263649	0.675933	0.683523
	C2155	C	0.362946	0.694577	0.627170
	C2156	C	0.314816	0.666642	0.649018
	N2157	N	0.337155	0.665420	0.632861
	O2158	O	0.291564	0.644717	0.658815
	O2159	O	0.384735	0.699885	0.612803
	C2160	C	-0.009110	-0.042457	0.823682
	C2161	C	-0.039861	-0.059304	0.828878
	C2162	C	-0.048055	-0.085674	0.863605
	C2163	C	-0.025939	-0.096061	0.890227
	C2164	C	0.004546	-0.079976	0.883107
	C2165	C	0.013351	-0.052575	0.851429
	C2166	C	-0.058408	-0.043194	0.794428
	C2167	C	-0.006488	-0.013996	0.788169
	N2168	N	-0.036895	-0.015664	0.771486
	O2169	O	0.016238	0.007476	0.775939
	O2170	O	-0.085974	-0.051039	0.785582
	C2171	C	-0.041334	-0.125369	0.922353
	C2172	C	-0.077562	-0.106249	0.881742
	N2173	N	-0.072158	-0.129960	0.916595
	O2174	O	-0.101432	-0.104065	0.871392
	O2175	O	-0.031191	-0.142797	0.947893
	C2176	C	0.047818	-0.039442	0.854430
	C2177	C	0.032546	-0.085977	0.906312
	N2178	N	0.057782	-0.060945	0.887407
	O2179	O	0.034567	-0.107463	0.934662
	O2180	O	0.064930	-0.015679	0.834468
	F2181	F	-0.027469	0.065714	0.636632
	C2182	C	-0.037403	0.050927	0.676963
	C2183	C	-0.034510	0.024374	0.700420
	F2184	F	-0.022787	0.013807	0.681015
	C2185	C	-0.042959	0.009269	0.744230
	C2186	C	-0.055080	0.021152	0.763210
	F2187	F	-0.063609	0.007285	0.804791
	C2188	C	-0.057550	0.047834	0.740144
	F2189	F	-0.066595	0.059951	0.761526
	C2190	C	-0.049778	0.062564	0.695857
	F2191	F	0.830905	0.781644	0.894028
	C2192	C	0.856044	0.797878	0.924043
	C2193	C	0.878894	0.824829	0.905800
	F2194	F	0.875836	0.833430	0.858703
	C2195	C	0.904678	0.842908	0.936252
	C2196	C	0.907639	0.832566	0.985378
	F2197	F	0.931799	0.850013	1.014968
	C2198	C	0.885790	0.804327	1.003567
	F2199	F	0.890546	0.793598	1.050125
	C2200	C	0.858995	0.787288	0.973029
	F2201	F	0.154355	-0.061911	0.983896
	C2202	C	0.134887	-0.061777	0.941463
	C2203	C	0.107926	-0.059392	0.936288
	F2204	F	0.102535	-0.055302	0.972946
	C2205	C	0.086294	-0.061245	0.892832
	C2206	C	0.092154	-0.065515	0.854714
	F2207	F	0.071188	-0.068348	0.813431
	C2208	C	0.119610	-0.066676	0.859347
	F2209	F	0.125278	-0.070132	0.822336
	C2210	C	0.141579	-0.064133	0.902408
	C2211	C	-0.024253	0.169071	0.682567
	C2212	C	-0.039952	0.182622	0.689102
	C2213	C	-0.072173	0.165475	0.688905
	C2214	C	-0.087216	0.135583	0.682110
	C2215	C	-0.071579	0.122796	0.672935
	C2216	C	-0.040015	0.139485	0.673546
	C2217	C	-0.015353	0.213703	0.700289
	C2218	C	0.009886	0.190171	0.689132
	N2219	N	0.014245	0.216215	0.701287
	O2220	O	0.030700	0.186808	0.685512
	O2221	O	-0.018275	0.233577	0.706836
	C2222	C	-0.119277	0.120406	0.691544
	C2223	C	-0.095783	0.170726	0.700276
	N2224	N	-0.123021	0.142047	0.704055
	O2225	O	-0.093595	0.193720	0.705456
	O2226	O	-0.138418	0.094400	0.691187
	C2227	C	-0.028132	0.118649	0.671737
	C2228	C	-0.081388	0.090850	0.669107
	N2229	N	-0.053595	0.089213	0.672937
	O2230	O	-0.106852	0.069704	0.664735
	O2231	O	-0.002428	0.124226	0.670422
	C2232	C	0.748059	0.721090	0.941695
	C2233	C	0.730861	0.694798	0.922292
	C2234	C	0.745681	0.677791	0.923758
	C2235	C	0.777410	0.687676	0.944173
	C2236	C	0.794764	0.714667	0.962228
	C2237	C	0.780067	0.731212	0.961212
	C2238	C	0.697940	0.691424	0.901511
	C2239	C	0.727273	0.735414	0.934118
	N2240	N	0.697596	0.716930	0.909229
	O2241	O	0.733134	0.757780	0.946797
	O2242	O	0.675529	0.671830	0.882099
	C2243	C	0.787719	0.666750	0.938574
	C2244	C	0.734315	0.649053	0.905968
	N2245	N	0.761008	0.644023	0.915373
	O2246	O	0.708581	0.632724	0.887252
	O2247	O	0.813378	0.668060	0.949871
	C2248	C	0.804402	0.759724	0.979868
	C2249	C	0.829051	0.731760	0.982530
	N2250	N	0.833779	0.760005	0.988142
	O2251	O	0.849506	0.724312	0.992503
	O2252	O	0.801170	0.779558	0.986092
	C2253	C	0.225436	-0.087995	0.899125
	C2254	C	0.252056	-0.071276	0.880153
	C2255	C	0.263392	-0.039569	0.866149
	C2256	C	0.246836	-0.025950	0.869669
	C2257	C	0.218420	-0.043405	0.883933
	C2258	C	0.208144	-0.074271	0.900202
	C2259	C	0.261947	-0.093808	0.877969
	C2260	C	0.219324	-0.120513	0.913848
	N2261	N	0.240800	-0.123139	0.898270
	O2262	O	0.200495	-0.141337	0.935560
	O2263	O	0.282287	-0.089597	0.861232
	C2264	C	0.263734	0.007633	0.854841
	C2265	C	0.291413	-0.014363	0.846270
	N2266	N	0.290084	0.013470	0.840626
	O2267	O	0.311116	-0.015908	0.835630
	O2268	O	0.257815	0.027080	0.855933
	C2269	C	0.177294	-0.086902	0.913354
	C2270	C	0.194406	-0.035035	0.884685
	N2271	N	0.170610	-0.061973	0.903827
	O2272	O	0.194138	-0.010752	0.870695
	O2273	O	0.160797	-0.112640	0.928557
	F2274	F	0.888503	0.152433	0.795279
	C2275	C	0.859055	0.136512	0.773584
	C2276	C	0.835338	0.123536	0.798337
	F2277	F	0.842234	0.128229	0.842432
	C2278	C	0.804476	0.105382	0.777979
	C2279	C	0.798350	0.099942	0.732604
	F2280	F	0.769743	0.080162	0.714019
	C2281	C	0.821440	0.115227	0.706232
	F2282	F	0.813712	0.112644	0.660712
	C2283	C	0.852546	0.132777	0.726931
	F2284	F	0.046324	0.263438	0.635756
	C2285	C	0.061550	0.260412	0.680984
	C2286	C	0.093758	0.277902	0.692969
	F2287	F	0.109054	0.297653	0.658991
	C2288	C	0.110321	0.274896	0.739939
	C2289	C	0.093365	0.255081	0.774877
	F2290	F	0.108399	0.252856	0.820384
	C2291	C	0.061122	0.237385	0.762729
	F2292	F	0.045374	0.218092	0.796443
	C2293	C	0.044914	0.239042	0.715317
	F2294	F	0.766031	0.596158	0.985720
	C2295	C	0.769062	0.598692	0.942457
	C2296	C	0.780155	0.581116	0.935269
	F2297	F	0.788099	0.562012	0.971884
	C2298	C	0.783508	0.583597	0.890193
	C2299	C	0.770656	0.600226	0.851647
	F2300	F	0.767372	0.597906	0.807537
	C2301	C	0.761588	0.619430	0.859128
	F2302	F	0.752588	0.637785	0.822310
	C2303	C	0.762393	0.620065	0.905120
	F2304	F	0.676302	0.740803	0.814796
	C2305	C	0.664513	0.739134	0.849242
	C2306	C	0.644971	0.752693	0.839148
	F2307	F	0.638896	0.768030	0.795559
	C2308	C	0.631837	0.750672	0.874374
	C2309	C	0.637726	0.733744	0.919348
	F2310	F	0.624430	0.730638	0.952995
	C2311	C	0.657476	0.720479	0.929545
	F2312	F	0.662833	0.704410	0.972762
	C2313	C	0.672295	0.724252	0.895250
	F2314	F	0.198183	0.854895	0.818821
	C2315	C	0.208093	0.836339	0.853686
	C2316	C	0.192381	0.805366	0.853785
	F2317	F	0.167072	0.794308	0.819819
	C2318	C	0.202336	0.785438	0.889430
	C2319	C	0.229898	0.797695	0.923117
	F2320	F	0.241564	0.779474	0.954986
	C2321	C	0.245067	0.828714	0.924046
	F2322	F	0.270810	0.840020	0.957153
	C2323	C	0.233188	0.848083	0.890803
	F2324	F	0.343409	0.046489	0.902758
	C2325	C	0.335328	0.060793	0.859268
	C2326	C	0.349844	0.092374	0.848307
	F2327	F	0.371779	0.108355	0.881445
	C2328	C	0.341289	0.107701	0.803168
	C2329	C	0.319290	0.090554	0.768451
	F2330	F	0.311804	0.104604	0.724402
	C2331	C	0.304466	0.058998	0.779609
	F2332	F	0.282649	0.043075	0.746330
	C2333	C	0.311303	0.043805	0.825727
	C2334	C	0.687484	0.046651	0.859176
	C2335	C	0.707806	0.040043	0.848771
	C2336	C	0.734370	0.063651	0.832059
	C2337	C	0.739820	0.093550	0.824991
	C2338	C	0.718673	0.100165	0.833612
	C2339	C	0.693023	0.076958	0.851718
	C2340	C	0.694927	0.005986	0.857470
	C2341	C	0.661061	0.017015	0.875209
	N2342	N	0.666864	-0.006604	0.873350
	O2343	O	0.638899	0.012577	0.887684
	O2344	O	0.704538	-0.009204	0.851467
	C2345	C	0.768578	0.113817	0.804813
	C2346	C	0.760361	0.063913	0.818052
	N2347	N	0.779766	0.094809	0.800888
	O2348	O	0.764887	0.043055	0.819936
	O2349	O	0.780230	0.140949	0.792790
	C2350	C	0.675146	0.091173	0.857705
	C2351	C	0.717626	0.129767	0.825971
	N2352	N	0.690954	0.122975	0.840945
	O2353	O	0.734839	0.154856	0.809398
	O2354	O	0.652477	0.079471	0.874171
	C2355	C	0.249484	0.363387	0.779819
	C2356	C	0.219580	0.359569	0.774764
	C2357	C	0.193512	0.332011	0.765792
	C2358	C	0.197374	0.308534	0.760853
	C2359	C	0.227535	0.312717	0.764088
	C2360	C	0.253454	0.339855	0.773984
	C2361	C	0.221990	0.388418	0.780529
	C2362	C	0.272230	0.395141	0.789172
	N2363	N	0.254160	0.409101	0.788948
	O2364	O	0.300164	0.407678	0.795574
	O2365	O	0.201758	0.394679	0.778071
	C2366	C	0.165232	0.282478	0.750412
	C2367	C	0.159202	0.321614	0.760459
	N2368	N	0.143325	0.291726	0.751065
	O2369	O	0.146365	0.334859	0.763354
	O2370	O	0.157884	0.258226	0.742633
	C2371	C	0.282344	0.337169	0.777386
	C2372	C	0.238988	0.292057	0.759800
	N2373	N	0.272147	0.308062	0.767977
	O2374	O	0.224281	0.266903	0.750938
	O2375	O	0.309298	0.355187	0.786314
	C2376	C	0.853896	0.515136	0.897819
	C2377	C	0.824665	0.511886	0.895647
	C2378	C	0.820514	0.537460	0.890788
	C2379	C	0.845699	0.566184	0.888343
	C2380	C	0.875545	0.569477	0.892020
	C2381	C	0.879468	0.544110	0.896128
	C2382	C	0.801828	0.478815	0.897719
	C2383	C	0.850651	0.484114	0.900636
	N2384	N	0.818662	0.463349	0.899773
	O2385	O	0.870035	0.476974	0.902261
	O2386	O	0.774420	0.466393	0.897382
	C2387	C	0.834158	0.588556	0.884840
	C2388	C	0.791950	0.540435	0.887893
	N2389	N	0.801723	0.571634	0.885138
	O2390	O	0.765737	0.521079	0.888955
	O2391	O	0.848440	0.615526	0.883074
	C2392	C	0.913262	0.554473	0.897826
	C2393	C	0.906624	0.597104	0.889301
	N2394	N	0.928559	0.586496	0.894216
	O2395	O	0.912815	0.623427	0.882646
	O2396	O	0.926103	0.539759	0.900827
	C2397	C	0.561567	0.816979	0.875563
	C2398	C	0.591121	0.821015	0.877315
	C2399	C	0.594968	0.797493	0.871429
	C2400	C	0.569008	0.770213	0.863084
	C2401	C	0.539305	0.766003	0.861671
	C2402	C	0.535377	0.789117	0.867914
	C2403	C	0.614183	0.853110	0.883218
	C2404	C	0.565287	0.845816	0.884240
	N2405	N	0.597569	0.866721	0.888521
	O2406	O	0.546165	0.851602	0.887848
	O2407	O	0.641424	0.866500	0.882297
	C2408	C	0.579680	0.749054	0.858823
	C2409	C	0.623390	0.794844	0.872363
	N2410	N	0.612636	0.764925	0.865612
	O2411	O	0.650400	0.813123	0.878160
	O2412	O	0.564663	0.723494	0.851602
	C2413	C	0.500742	0.777886	0.862337
	C2414	C	0.507911	0.739348	0.852545
	N2415	N	0.485625	0.747705	0.853331
	O2416	O	0.501282	0.715089	0.845468
	O2417	O	0.487215	0.790673	0.864373
	C2418	C	0.123247	0.657319	0.846267
	C2419	C	0.152640	0.681954	0.847431
	C2420	C	0.160114	0.707122	0.865300
	C2421	C	0.138240	0.707507	0.882370
	C2422	C	0.108118	0.683125	0.879706
	C2423	C	0.100807	0.658033	0.862284
	C2424	C	0.171770	0.675249	0.828403
	C2425	C	0.122320	0.634177	0.824987
	N2426	N	0.152362	0.646365	0.815283
	O2427	O	0.101448	0.609927	0.817141
	O2428	O	0.198522	0.690148	0.824672
	C2429	C	0.152999	0.737339	0.898670
	C2430	C	0.189104	0.736845	0.868589
	N2431	N	0.183761	0.753894	0.889776
	O2432	O	0.212496	0.746343	0.854943
	O2433	O	0.142592	0.746989	0.916039
	C2434	C	0.067241	0.635795	0.863668
	C2435	C	0.079461	0.677701	0.892999
	N2436	N	0.055607	0.648934	0.882265
	O2437	O	0.075913	0.693710	0.909141
	O2438	O	0.051909	0.611393	0.852031
	C2439	C	0.415631	0.246074	0.768728
	C2440	C	0.416599	0.218970	0.774081
	C2441	C	0.390344	0.191114	0.780737
	C2442	C	0.363091	0.190281	0.782782
	C2443	C	0.362192	0.217574	0.778736
	C2444	C	0.388119	0.245333	0.771408
	C2445	C	0.448660	0.225767	0.772224
	C2446	C	0.447621	0.271506	0.762683
	N2447	N	0.466417	0.257635	0.765599
	O2448	O	0.456464	0.298397	0.755936
	O2449	O	0.458751	0.208440	0.776325
	C2450	C	0.339800	0.157277	0.792454
	C2451	C	0.385104	0.159124	0.786083
	N2452	N	0.354383	0.139792	0.793279
	O2453	O	0.402301	0.150239	0.784273
	O2454	O	0.313987	0.146259	0.799160
	C2455	C	0.379432	0.270039	0.767155
	C2456	C	0.336235	0.223541	0.779164
	N2457	N	0.348011	0.255489	0.772764
	O2458	O	0.310215	0.205638	0.784091
	O2459	O	0.394960	0.297052	0.760007
	F2460	F	0.664863	-0.045117	0.962804
	C2461	C	0.646904	-0.057164	0.923982
	C2462	C	0.629533	-0.088628	0.928042
	F2463	F	0.630860	-0.106461	0.970732
	C2464	C	0.610707	-0.101736	0.887831
	C2465	C	0.607223	-0.082447	0.844593
	F2466	F	0.587027	-0.094396	0.806601
	C2467	C	0.624810	-0.051126	0.840441
	F2468	F	0.621585	-0.033480	0.798112
	C2469	C	0.646006	-0.038045	0.879662
	F2470	F	0.658241	0.146803	0.759240
	C2471	C	0.667309	0.157835	0.798698
	C2472	C	0.662342	0.182108	0.797705
	F2473	F	0.649746	0.195203	0.756722
	C2474	C	0.670648	0.193210	0.839124
	C2475	C	0.683911	0.179219	0.881410
	F2476	F	0.690909	0.188404	0.921957
	C2477	C	0.690656	0.156329	0.881694
	F2478	F	0.705602	0.145088	0.921929
	C2479	C	0.682455	0.145204	0.840477
	F2480	F	0.297836	0.320950	0.690960
	C2481	C	0.304212	0.302250	0.730172
	C2482	C	0.322733	0.289216	0.731335
	F2483	F	0.333615	0.295311	0.693118
	C2484	C	0.330343	0.269965	0.771965
	C2485	C	0.318885	0.264402	0.811517
	F2486	F	0.326358	0.246735	0.851383
	C2487	C	0.299858	0.276911	0.810077
	F2488	F	0.288865	0.270711	0.848235
	C2489	C	0.292045	0.295940	0.769306
	F2490	F	0.297323	0.515121	0.719796
	C2491	C	0.284462	0.493050	0.754252
	C2492	C	0.278691	0.463478	0.756275
	F2493	F	0.286084	0.457600	0.723695
	C2494	C	0.265054	0.439808	0.791639
	C2495	C	0.259576	0.447153	0.826967
	F2496	F	0.248863	0.425557	0.863434
	C2497	C	0.264929	0.476646	0.824520
	F2498	F	0.258808	0.482928	0.858120
	C2499	C	0.276574	0.499908	0.787307
	F2500	F	0.008591	0.653769	0.805443
	C2501	C	0.000762	0.637289	0.846845
	C2502	C	-0.030538	0.621962	0.849785
	F2503	F	-0.052603	0.623470	0.811098
	C2504	C	-0.039386	0.604696	0.892642
	C2505	C	-0.015758	0.604609	0.933083
	F2506	F	-0.023456	0.589547	0.975007
	C2507	C	0.015551	0.619658	0.930071
	F2508	F	0.037643	0.618634	0.969012
	C2509	C	0.024214	0.635645	0.886651
	F2510	F	0.810250	0.447406	0.814894
	C2511	C	0.796244	0.425986	0.848966
	C2512	C	0.773670	0.397429	0.839139
	F2513	F	0.765895	0.391413	0.795787
	C2514	C	0.758330	0.374957	0.874016
	C2515	C	0.769387	0.380229	0.920567
	F2516	F	0.757570	0.357525	0.955206
	C2517	C	0.791982	0.408851	0.930445
	F2518	F	0.802343	0.413918	0.974846
	C2519	C	0.803610	0.432723	0.893800
	F2520	F	0.451057	0.707665	0.922382
	C2521	C	0.436983	0.707037	0.876604
	C2522	C	0.406760	0.684544	0.863949
	F2523	F	0.391742	0.663533	0.897440
	C2524	C	0.391830	0.683303	0.816190
	C2525	C	0.407451	0.705755	0.781548
	F2526	F	0.393215	0.705339	0.735794
	C2527	C	0.437600	0.728227	0.794113
	F2528	F	0.452049	0.749383	0.760186
	C2529	C	0.453145	0.728605	0.841753
	F2530	F	0.172550	0.604658	0.878391
	C2531	C	0.176631	0.612933	0.833976
	C2532	C	0.194632	0.604116	0.822082
	F2533	F	0.207845	0.587443	0.855154
	C2534	C	0.199906	0.613297	0.776146
	C2535	C	0.184040	0.628770	0.741260
	F2536	F	0.186633	0.635610	0.696275
	C2537	C	0.166198	0.637796	0.753260
	F2538	F	0.151933	0.653356	0.719701
	C2539	C	0.163756	0.631429	0.800330
	F2540	F	0.489919	0.261157	0.691599
	C2541	C	0.509898	0.270588	0.731468
	C2542	C	0.541348	0.278547	0.737593
	F2543	F	0.551438	0.278270	0.702631
	C2544	C	0.562376	0.286093	0.780431
	C2545	C	0.551925	0.289453	0.814259
	F2546	F	0.572019	0.298799	0.854143
	C2547	C	0.520702	0.282625	0.807360
	F2548	F	0.511257	0.285911	0.840308
	C2549	C	0.498902	0.271536	0.767019
	C2550	C	0.678580	0.315497	0.833784
	C2551	C	0.695736	0.299182	0.847543
	C2552	C	0.680808	0.268707	0.842509
	C2553	C	0.648743	0.254476	0.825198
	C2554	C	0.631174	0.270476	0.814153
	C2555	C	0.646035	0.300910	0.817853
	C2556	C	0.729410	0.319803	0.866274
	C2557	C	0.700875	0.347544	0.841186
	N2558	N	0.730958	0.348589	0.861449
	O2559	O	0.696000	0.369271	0.831304
	O2560	O	0.751400	0.314265	0.883122
	C2561	C	0.639627	0.222159	0.823810
	C2562	C	0.693469	0.246402	0.851820
	N2563	N	0.667826	0.219138	0.838389
	O2564	O	0.719849	0.249673	0.867297
	O2565	O	0.614280	0.201987	0.812766
	C2566	C	0.621569	0.312143	0.802542
	C2567	C	0.596645	0.261059	0.797192
	N2568	N	0.592233	0.287002	0.791280
	O2569	O	0.575722	0.236586	0.790490
	O2570	O	0.625120	0.337161	0.800298
	C2571	C	0.320674	0.611921	0.788494
	C2572	C	0.307514	0.630955	0.782448
	C2573	C	0.275027	0.619242	0.774298
	C2574	C	0.255791	0.588974	0.770125
	C2575	C	0.269018	0.570123	0.773542
	C2576	C	0.301339	0.581364	0.784051
	C2577	C	0.333445	0.662035	0.789528
	C2578	C	0.355650	0.629858	0.802076
	N2579	N	0.361787	0.659651	0.802930
	O2580	O	0.375627	0.621896	0.811531
	O2581	O	0.332108	0.685317	0.784089
	C2582	C	0.222515	0.583034	0.763836
	C2583	C	0.255244	0.633036	0.774413
	N2584	N	0.223914	0.610334	0.767739
	O2585	O	0.263127	0.657801	0.781067
	O2586	O	0.198703	0.560326	0.757383
	C2587	C	0.308839	0.555646	0.790302
	C2588	C	0.254741	0.536744	0.772689
	N2589	N	0.279921	0.529375	0.783095
	O2590	O	0.227808	0.518507	0.765379
	O2591	O	0.333762	0.555657	0.800117
	N2592	N	0.373116	0.982788	0.142962
	N2593	N	0.351315	0.971545	0.117943
	N2594	N	0.367642	0.931524	0.945926
	N2595	N	0.352818	0.934988	0.960339
	N2596	N	0.171044	0.986490	0.736981
	N2597	N	0.186147	0.995419	0.711820
	N2598	N	0.797782	0.211937	0.151646
	N2599	N	0.810282	0.236165	0.153745
	N2600	N	0.624840	0.355147	0.591706
	N2601	N	0.605097	0.332548	0.596938
	N2602	N	0.652563	0.537567	0.605337
	N2603	N	0.676582	0.540598	0.621352
	N2604	N	0.619750	0.796020	0.992085
	N2605	N	0.632275	0.783055	0.996035
	N2606	N	0.403481	0.895049	0.363437
	N2607	N	0.378753	0.888188	0.345927
	N2608	N	0.849876	0.327481	0.966318
	N2609	N	0.846278	0.326756	0.928985
	N2610	N	0.432094	0.638666	0.355074
	N2611	N	0.426593	0.624685	0.389417
	N2612	N	0.026897	0.415024	0.488925
	N2613	N	0.009638	0.415000	0.502947
	N2614	N	0.575650	0.456433	0.162963
	N2615	N	0.551389	0.451169	0.160151
	N2616	N	0.040436	0.777724	0.848767
	N2617	N	0.017652	0.769771	0.823926
	N2618	N	0.352137	0.975787	0.273788
	N2619	N	0.352726	0.956621	0.302330
	N2620	N	0.421213	0.485981	0.523055
	N2621	N	0.442745	0.491151	0.550850
	C2622	C	0.147019	0.152718	0.475152
	O2623	O	0.146225	0.132033	0.505402
	O2624	O	0.147805	0.173425	0.444901
	C2625	C	0.893018	0.508542	0.456574
	O2626	O	0.915670	0.505686	0.465720
	O2627	O	0.870402	0.511416	0.447463
	C2628	C	0.419342	0.169877	0.025090
	O2629	O	0.436237	0.159412	0.031959
	O2630	O	0.402455	0.180319	0.018222
	C2631	C	0.702881	0.510132	0.256278
	O2632	O	0.694233	0.484259	0.259659
	O2633	O	0.711519	0.535983	0.252897
	C2634	C	0.275085	0.322117	0.230013
	O2635	O	0.280036	0.347506	0.218696
	O2636	O	0.270134	0.296728	0.241330
	C2637	C	0.603150	0.077171	0.966105
	O2638	O	0.622450	0.076549	0.954752
	O2639	O	0.583869	0.077794	0.977458
	C2640	C	0.852959	0.040483	0.223536
	O2641	O	0.836529	0.015698	0.238305
	O2642	O	0.869389	0.065268	0.208766
	C2643	C	0.903373	0.660455	0.606938
	O2644	O	0.917871	0.679798	0.580140
	O2645	O	0.888886	0.641135	0.633737
	C2646	C	0.180312	0.447814	0.745630
	O2647	O	0.205625	0.454504	0.744277
	O2648	O	0.155011	0.441147	0.746982
	C2649	C	0.747855	0.952871	0.875851
	O2650	O	0.722967	0.942380	0.882755
	O2651	O	0.772779	0.963380	0.868982
	C2652	C	0.728795	0.949873	0.527290
	O2653	O	0.703736	0.930867	0.530101
	O2654	O	0.753848	0.968883	0.524443
	C2655	C	0.019531	0.302012	0.062495
	O2656	O	0.014950	0.306403	0.093706
	O2657	O	0.024107	0.297625	0.031247
	C2658	C	0.837704	0.020780	0.830083
	O2659	O	0.833940	0.042401	0.811754
	O2660	O	0.841454	-0.000845	0.848447
	C2661	C	0.041114	0.312123	0.397247
	O2662	O	0.039064	0.292914	0.382620
	O2663	O	0.043181	0.331351	0.411910
	C2664	C	0.905140	0.674005	0.266101
	O2665	O	0.912349	0.677101	0.231686
	O2666	O	0.897948	0.670927	0.300551
	C2667	C	0.198023	0.987615	0.075663
	O2668	O	0.205608	1.009223	0.046515
	O2669	O	0.190419	0.966008	0.104810
	C2670	C	0.236853	0.577800	0.981408
	O2671	O	0.263233	0.583547	0.994469
	O2672	O	0.210491	0.572071	0.968383
	C2673	C	0.503412	0.780046	0.980020
	O2674	O	0.520546	0.779748	0.963009
	O2675	O	0.486284	0.780370	0.996996
	C2676	C	0.971849	0.736528	0.519887
	O2677	O	0.967522	0.713657	0.513446
	O2678	O	0.976176	0.759399	0.526329
	C2679	C	0.048664	0.823899	0.123779
	O2680	O	0.034949	0.798162	0.121964
	O2681	O	0.062384	0.849631	0.125630
	C2682	C	0.298983	0.836943	0.186096
	O2683	O	0.325498	0.844970	0.190545
	O2684	O	0.272462	0.828891	0.181683
	C2685	C	0.422678	0.838016	0.451414
	O2686	O	0.446987	0.856618	0.444011
	O2687	O	0.398369	0.819414	0.458816
	C2688	C	0.134462	0.888312	0.426964
	O2689	O	0.157838	0.897922	0.454474
	O2690	O	0.111107	0.878703	0.399453
	C2691	C	0.250850	0.345806	0.923113
	O2692	O	0.247648	0.330480	0.960161
	O2693	O	0.254027	0.361136	0.886029
	C2694	C	0.919382	0.754986	0.960695
	O2695	O	0.911129	0.773833	0.942367
	O2696	O	0.927635	0.736139	0.979024
	C2697	C	0.733905	0.528163	0.415113
	O2698	O	0.710750	0.530093	0.395681
	O2699	O	0.757040	0.526232	0.434544
	C2700	C	0.227318	0.329453	0.621174
	O2701	O	0.224365	0.333086	0.654664
	O2702	O	0.230275	0.325815	0.587720
	C2703	C	0.214563	0.322443	0.287454
	O2704	O	0.232458	0.333877	0.263253
	O2705	O	0.196669	0.311009	0.311655
	C2706	C	0.062940	0.954134	0.359914
	O2707	O	0.089196	0.971434	0.367708
	O2708	O	0.036673	0.936812	0.352120
	C2709	C	0.697510	0.421782	0.538394
	O2710	O	0.700808	0.407123	0.575869
	O2711	O	0.694200	0.436420	0.500918
	C2712	C	0.373155	0.747728	0.844532
	O2713	O	0.376142	0.738802	0.816915
	O2714	O	0.370161	0.756628	0.872185
	C2715	C	0.112110	0.825108	0.914323
	O2716	O	0.117329	0.815454	0.954716
	O2717	O	0.106885	0.834766	0.873893
	C2718	C	0.541100	0.207312	0.211649
	O2719	O	0.551145	0.192797	0.243466
	O2720	O	0.531071	0.221844	0.179868
	C2721	C	0.715118	0.607992	0.378527
	O2722	O	0.703737	0.586792	0.406286
	O2723	O	0.726484	0.629187	0.350803
	C2724	C	0.982874	0.849251	0.170899
	O2725	O	0.956516	0.840796	0.168408
	O2726	O	1.009268	0.857726	0.173426
	C2727	C	0.698591	0.428860	0.832788
	O2728	O	0.679361	0.425048	0.849942
	O2729	O	0.717822	0.432672	0.815634
	C2730	C	0.813062	0.333196	0.227273
	O2731	O	0.821137	0.355866	0.238697
	O2732	O	0.804996	0.310504	0.215849
	C2733	C	0.709331	0.939848	0.202538
	O2734	O	0.735749	0.948912	0.220724
	O2735	O	0.682926	0.930758	0.184388
	C2736	C	0.771760	0.956766	0.093137
	O2737	O	0.764714	0.930879	0.102782
	O2738	O	0.778822	0.982658	0.083457
	C2739	C	0.115792	0.468794	0.237095
	O2740	O	0.116081	0.491724	0.234782
	O2741	O	0.115476	0.445838	0.239444
	C2742	C	0.981924	0.811489	0.563804
	O2743	O	0.955384	0.795770	0.562025
	O2744	O	1.008463	0.827209	0.565584
	C2745	C	0.099153	0.884081	0.742177
	O2746	O	0.074823	0.883968	0.730682
	O2747	O	0.123484	0.884195	0.753673
	C2748	C	0.369700	0.752188	0.495900
	O2749	O	0.364379	0.752330	0.455542
	O2750	O	0.375053	0.752067	0.536258
	C2751	C	0.220845	0.194276	0.122783
	O2752	O	0.196804	0.173627	0.127018
	O2753	O	0.244900	0.214898	0.118583
	C2754	C	0.309807	0.852761	0.515652
	O2755	O	0.335620	0.858614	0.518784
	O2756	O	0.284003	0.846885	0.512520
	C2757	C	0.721126	0.419885	0.187875
	O2758	O	0.722050	0.427927	0.147873
	O2759	O	0.720170	0.411820	0.227878
	C2760	C	0.604341	0.117832	0.579997
	O2761	O	0.619957	0.130200	0.552202
	O2762	O	0.588706	0.105464	0.607793
	C2763	C	0.850512	0.033531	0.470383
	O2764	O	0.852013	0.057408	0.464938
	O2765	O	0.849030	0.009655	0.475828
	C2766	C	0.582345	0.226848	0.676017
	O2767	O	0.561112	0.215520	0.646549
	O2768	O	0.603574	0.238180	0.705449
	C2769	C	0.859654	0.472881	0.708297
	O2770	O	0.855777	0.459711	0.746235
	O2771	O	0.863520	0.486029	0.670358
	C2772	C	0.425970	0.560162	0.284180
	O2773	O	0.433927	0.547223	0.320908
	O2774	O	0.417993	0.573102	0.247452
	C2775	C	0.376321	0.064313	0.053704
	O2776	O	0.368326	0.057605	0.088973
	O2777	O	0.384342	0.071016	0.018471
	C2778	C	0.754694	0.885907	0.309662
	O2779	O	0.758504	0.864310	0.319342
	O2780	O	0.750864	0.907504	0.299981
	C2781	C	0.056782	0.111392	0.341336
	O2782	O	0.064267	0.118192	0.378171
	O2783	O	0.049335	0.104610	0.304537
	C2784	C	0.171738	0.359940	0.525083
	O2785	O	0.157881	0.373471	0.518962
	O2786	O	0.185607	0.346431	0.531205
	C2787	C	0.451138	0.160832	0.256314
	O2788	O	0.476505	0.168953	0.253431
	O2789	O	0.425751	0.152712	0.259196
	C2790	C	0.743614	0.961428	0.355109
	O2791	O	0.734480	0.979675	0.342689
	O2792	O	0.752765	0.943198	0.367565
	C2793	C	0.760702	0.026593	0.651318
	O2794	O	0.759926	0.042218	0.614199
	O2795	O	0.761490	0.010990	0.688438
	C2796	C	0.371101	0.524243	0.532557
	O2797	O	0.345640	0.505866	0.521916
	O2798	O	0.396545	0.542602	0.543163
	C2799	C	0.774364	0.218500	0.839692
	O2800	O	0.784097	0.228955	0.805277
	O2801	O	0.764626	0.208048	0.874071
	C2802	C	0.036046	0.559066	0.259054
	O2803	O	0.016251	0.563329	0.261438
	O2804	O	0.055829	0.554780	0.256669
	C2805	C	0.125957	0.207507	0.695129
	O2806	O	0.133438	0.192215	0.729009
	O2807	O	0.118480	0.222795	0.661283
	C2808	C	0.573464	0.962084	0.912899
	O2809	O	0.562637	0.979035	0.899517
	O2810	O	0.584297	0.945130	0.926316
	C2811	C	0.102731	0.778639	0.249872
	O2812	O	0.087666	0.778074	0.211364
	O2813	O	0.117812	0.779223	0.288415
	C2814	C	0.922767	0.536202	0.122107
	O2815	O	0.904759	0.545054	0.097408
	O2816	O	0.940794	0.527349	0.146806
	C2817	C	0.466821	0.281965	0.246313
	O2818	O	0.460702	0.257662	0.243323
	O2819	O	0.472922	0.306249	0.249267
	C2820	C	0.372444	0.039719	0.767802
	O2821	O	0.379722	0.026231	0.754171
	O2822	O	0.365153	0.053184	0.781432
	C2823	C	0.453213	0.644789	0.157731
	O2824	O	0.440680	0.656933	0.125523
	O2825	O	0.465746	0.632644	0.189940
	C2826	C	0.722488	0.804405	0.623594
	O2827	O	0.741193	0.808494	0.658934
	O2828	O	0.703802	0.800317	0.588254
	C2829	C	0.996980	0.929004	0.688224
	O2830	O	0.982631	0.916742	0.655838
	O2831	O	1.011310	0.941267	0.720610
	C2832	C	0.616930	0.182375	0.608896
	O2833	O	0.603148	0.170968	0.639004
	O2834	O	0.630706	0.193787	0.578752
	C2835	C	0.024649	0.698731	0.252790
	O2836	O	0.006726	0.676776	0.237344
	O2837	O	0.042584	0.720709	0.268236
	C2838	C	0.257260	0.201151	0.911547
	O2839	O	0.275133	0.194786	0.942723
	O2840	O	0.239373	0.207511	0.880406
	C2841	C	0.074765	0.020423	0.697513
	O2842	O	0.051139	0.021792	0.681747
	O2843	O	0.098410	0.019055	0.713279
	C2844	C	0.096047	0.099893	0.968454
	O2845	O	0.119253	0.103338	0.996462
	O2846	O	0.072825	0.096430	0.940409
	C2847	C	0.118807	0.786223	0.595550
	O2848	O	0.113062	0.792201	0.554266
	O2849	O	0.124558	0.780273	0.636798
	C2850	C	0.491597	0.779022	0.657689
	O2851	O	0.488757	0.794988	0.673277
	O2852	O	0.494438	0.763057	0.642101
	C2853	C	0.579230	0.799847	0.712176
	O2854	O	0.580628	0.819828	0.680288
	O2855	O	0.577853	0.779867	0.744064
	C2856	C	0.273938	0.802394	0.860690
	O2857	O	0.256772	0.813277	0.845813
	O2858	O	0.291098	0.791514	0.875530
	C2859	C	0.611794	0.110893	0.297846
	O2860	O	0.615503	0.134481	0.273966
	O2861	O	0.608090	0.087332	0.321691
	C2862	C	0.600293	0.250624	0.333613
	O2863	O	0.620511	0.254688	0.367245
	O2864	O	0.580076	0.246560	0.299981
	C2865	C	0.449379	0.318303	0.850120
	O2866	O	0.428823	0.320816	0.853892
	O2867	O	0.469970	0.315808	0.846383
	C2868	C	0.140789	0.893394	0.101963
	O2869	O	0.123747	0.894967	0.065449
	O2870	O	0.157830	0.891820	0.138478
	C2871	C	0.598303	0.172603	0.320730
	O2872	O	0.615052	0.197671	0.325214
	O2873	O	0.581521	0.147513	0.316246
	C2874	C	0.170780	0.331409	0.910764
	O2875	O	0.160342	0.325401	0.943292
	O2876	O	0.181224	0.337443	0.878199
	C2877	C	0.714538	0.895895	0.976960
	O2878	O	0.701233	0.905365	0.986675
	O2879	O	0.727844	0.886425	0.967244
	C2880	C	0.109331	0.518927	0.519638
	O2881	O	0.125160	0.541229	0.497964
	O2882	O	0.093496	0.496629	0.541276
	C2883	C	0.472853	0.736223	0.342368
	O2884	O	0.494786	0.757168	0.330410
	O2885	O	0.450934	0.715282	0.354291
	C2886	C	0.175799	0.462886	0.430487
	O2887	O	0.159292	0.474153	0.409062
	O2888	O	0.192274	0.451596	0.451912
	C2889	C	0.006164	0.367091	0.105024
	O2890	O	0.000678	0.347086	0.137125
	O2891	O	0.011643	0.387070	0.072958
	C2892	C	0.015460	0.855109	0.806665
	O2893	O	0.034918	0.847298	0.826844
	O2894	O	-0.004005	0.862894	0.786522
	C2895	C	0.755413	0.210801	0.475045
	O2896	O	0.780442	0.222508	0.468069
	O2897	O	0.730348	0.199075	0.481985
	C2898	C	0.996299	0.818213	0.692602
	O2899	O	1.010377	0.836357	0.716945
	O2900	O	0.982213	0.800092	0.668259
	C2901	C	0.427188	0.161563	0.684559
	O2902	O	0.408631	0.170779	0.669398
	O2903	O	0.445752	0.152342	0.699755
	C2904	C	0.724781	0.937752	0.652528
	O2905	O	0.733856	0.961227	0.627509
	O2906	O	0.715732	0.914304	0.677512
	C2907	C	0.461482	0.303378	0.552238
	O2908	O	0.442112	0.304867	0.561918
	O2909	O	0.480884	0.301912	0.542558
	C2910	C	0.009995	0.657068	0.715023
	O2911	O	-0.004978	0.631152	0.715130
	O2912	O	0.024949	0.682984	0.714916
	C2913	C	0.249125	0.145038	0.369701
	O2914	O	0.258799	0.127325	0.380413
	O2915	O	0.239437	0.162747	0.359024
	C2916	C	0.015979	0.696374	0.596440
	O2917	O	0.013340	0.673408	0.593308
	O2918	O	0.018629	0.719363	0.599572
	C2919	C	0.244167	0.177107	0.458211
	O2920	O	0.249877	0.199861	0.467002
	O2921	O	0.238469	0.154376	0.449421
	C2922	C	0.037851	0.992263	0.010677
	O2923	O	0.022684	1.005203	-0.008221
	O2924	O	0.053017	0.979322	0.029575
	C2925	C	0.080338	0.389334	0.031674
	O2926	O	0.059281	0.370891	0.048650
	O2927	O	0.101396	0.407777	0.014698
	C2928	C	0.907329	0.752598	0.631459
	O2929	O	0.906865	0.775456	0.627082
	O2930	O	0.907792	0.729741	0.635837
	C2931	C	0.149400	0.348329	0.201471
	O2932	O	0.146526	0.327146	0.191292
	O2933	O	0.152286	0.369534	0.211649
	C2934	C	0.674955	0.650301	0.453264
	O2935	O	0.650733	0.629202	0.453691
	O2936	O	0.699162	0.671396	0.452873
	C2937	C	0.649289	0.419303	0.220297
	O2938	O	0.640275	0.407700	0.255353
	O2939	O	0.658300	0.430925	0.185277
	C2940	C	0.426573	0.181207	0.342867
	O2941	O	0.406610	0.186417	0.341728
	O2942	O	0.446547	0.176018	0.344005
	C2943	C	0.594707	0.542326	0.476468
	O2944	O	0.590324	0.550328	0.435470
	O2945	O	0.599079	0.534302	0.517467
	C2946	C	0.728033	0.803738	0.966568
	O2947	O	0.741034	0.803204	1.006249
	O2948	O	0.714999	0.804249	0.926886
	C2949	C	0.154772	0.154628	0.849159
	O2950	O	0.156929	0.132626	0.853679
	O2951	O	0.152621	0.176625	0.844674
	C2952	C	0.590447	0.331615	0.255602
	O2953	O	0.614343	0.330712	0.269873
	O2954	O	0.566567	0.332537	0.241366
	C2955	C	0.927873	0.773717	0.280194
	O2956	O	0.916049	0.787566	0.281511
	O2957	O	0.939691	0.759840	0.278913
	C2958	C	0.072524	0.850627	0.982654
	O2959	O	0.087470	0.872043	0.958596
	O2960	O	0.057578	0.829210	1.006712
	C2961	C	0.600212	0.032909	0.583343
	O2962	O	0.609966	0.050299	0.608006
	O2963	O	0.590484	0.015544	0.558644
	C2964	C	0.330945	0.937551	0.788728
	O2965	O	0.318398	0.952417	0.765026
	O2966	O	0.343490	0.922704	0.812466
	C2967	C	0.983547	0.760720	0.186772
	O2968	O	0.986405	0.784768	0.184459
	O2969	O	0.980689	0.736671	0.189086
	C2970	C	0.791821	0.945272	0.783710
	O2971	O	0.779873	0.922712	0.808943
	O2972	O	0.803774	0.967828	0.758513
	C2973	C	0.515661	0.898930	0.830652
	O2974	O	0.491429	0.881269	0.813676
	O2975	O	0.539893	0.916591	0.847628
	C2976	C	0.872990	0.993016	0.640535
	O2977	O	0.852778	0.974461	0.619146
	O2978	O	0.893196	1.011545	0.661959
	C2979	C	0.121408	0.365209	0.770720
	O2980	O	0.142276	0.376069	0.800935
	O2981	O	0.100552	0.354371	0.740505
	C2982	C	0.218926	0.200082	0.767624
	O2983	O	0.245338	0.215322	0.767766
	O2984	O	0.192514	0.184843	0.767481
	C2985	C	0.183014	0.555187	0.329343
	O2986	O	0.210008	0.569518	0.337848
	O2987	O	0.156020	0.540856	0.320837
	C2988	C	0.849028	0.445632	0.085628
	O2989	O	0.863144	0.471607	0.073314
	O2990	O	0.834949	0.419675	0.097977
	C2991	C	0.458810	0.226952	0.588219
	O2992	O	0.441526	0.232026	0.554302
	O2993	O	0.476100	0.221875	0.622171
	C2994	C	0.722375	0.530441	0.122783
	O2995	O	0.744392	0.533553	0.113743
	O2996	O	0.700363	0.527325	0.131858
	C2997	C	0.885159	0.178191	0.220440
	O2998	O	0.890575	0.197984	0.188053
	O2999	O	0.879769	0.158425	0.252790
	C3000	C	0.598164	0.030718	0.262008
	O3001	O	0.577812	0.015623	0.235494
	O3002	O	0.618524	0.045839	0.288486
	C3003	C	0.133729	0.138861	0.158906
	O3004	O	0.137751	0.122089	0.193392
	O3005	O	0.129698	0.155655	0.124420
	C3006	C	0.562202	0.941341	0.567079
	O3007	O	0.583518	0.936776	0.573805
	O3008	O	0.540855	0.945883	0.560352
	C3009	C	0.037464	0.014228	0.355074
	O3010	O	0.034649	0.036212	0.335357
	O3011	O	0.040278	-0.007756	0.374790
	C3012	C	0.252565	0.270255	0.919554
	O3013	O	0.245134	0.289334	0.897702
	O3014	O	0.260013	0.251194	0.941442
	C3015	C	0.839440	0.039637	0.086339
	O3016	O	0.830221	0.052121	0.098404
	O3017	O	0.848685	0.027148	0.074310
	C3018	C	0.089871	0.664291	0.728084
	O3019	O	0.100373	0.665668	0.698438
	O3020	O	0.079332	0.662897	0.757694
	C3021	C	0.039288	0.803626	0.443050
	O3022	O	0.052949	0.797075	0.428245
	O3023	O	0.025619	0.810198	0.457855
	C3024	C	0.354634	0.981946	0.448104
	O3025	O	0.337351	0.957836	0.439242
	O3026	O	0.371901	1.006037	0.456930
	C3027	C	0.188153	0.458981	0.062459
	O3028	O	0.163418	0.453663	0.064523
	O3029	O	0.212883	0.464304	0.060359
	C3030	C	0.523330	0.965386	0.208553
	O3031	O	0.533847	0.948158	0.225280
	O3032	O	0.512801	0.982593	0.191826
	C3033	C	0.163220	0.222333	0.202538
	O3034	O	0.167176	0.246734	0.200652
	O3035	O	0.159265	0.197931	0.204424
	C3036	C	0.806916	0.168239	0.263004
	O3037	O	0.834001	0.180586	0.268770
	O3038	O	0.779824	0.155866	0.257274
	C3039	C	0.213406	0.074946	0.780116
	O3040	O	0.200370	0.067293	0.810260
	O3041	O	0.226405	0.082581	0.749936
	C3042	C	0.417361	0.036417	0.353935
	O3043	O	0.421195	0.055298	0.320161
	O3044	O	0.413558	0.017559	0.387709
	C3045	C	0.995974	0.377459	0.690217
	O3046	O	0.999174	0.394574	0.654521
	O3047	O	0.992786	0.360368	0.725913
	C3048	C	0.825053	0.966146	0.022670
	O3049	O	0.850118	0.976208	0.016763
	O3050	O	0.799961	0.956058	0.028614
	C3051	C	0.349574	0.943970	0.577720
	O3052	O	0.332473	0.943083	0.596262
	O3053	O	0.366686	0.944880	0.559178
	C3054	C	0.940383	0.688943	0.903610
	O3055	O	0.922411	0.695205	0.907454
	O3056	O	0.958348	0.682654	0.899802
	C3057	C	0.214364	0.126588	0.993509
	O3058	O	0.229054	0.117190	1.026535
	O3059	O	0.199668	0.135991	0.960446
	C3060	C	0.975474	0.385526	0.941406
	O3061	O	0.999931	0.401874	0.932615
	O3062	O	0.950985	0.369156	0.950196
	C3063	C	0.031314	0.673856	0.031995
	O3064	O	0.032066	0.684636	0.060786
	O3065	O	0.030542	0.663076	0.003203
	C3066	C	0.806398	0.931235	0.459421
	O3067	O	0.792322	0.912644	0.487252
	O3068	O	0.820470	0.949829	0.431555
	C3069	C	0.387066	0.755559	0.168871
	O3070	O	0.377639	0.759102	0.195278
	O3071	O	0.396489	0.752036	0.142499
	C3072	C	0.741421	0.807205	0.292650
	O3073	O	0.716373	0.796717	0.298949
	O3074	O	0.766486	0.817711	0.286386
	C3075	C	0.813209	0.065267	0.269197
	O3076	O	0.825279	0.049323	0.286422
	O3077	O	0.801151	0.081186	0.252007
	C3078	C	0.891483	0.456858	0.353650
	O3079	O	0.881586	0.468747	0.365644
	O3080	O	0.901382	0.444951	0.341621
	C3081	C	0.034357	0.306511	0.716055
	O3082	O	0.039381	0.293846	0.696908
	O3083	O	0.029315	0.319158	0.735166
	C3084	C	0.229783	0.066591	0.452944
	O3085	O	0.227695	0.079472	0.475614
	O3086	O	0.231866	0.053714	0.430238
	C3087	C	0.567086	0.663119	0.546686
	O3088	O	0.574655	0.665209	0.586510
	O3089	O	0.559503	0.661026	0.506897
	C3090	C	0.778493	0.031419	0.948132
	O3091	O	0.752766	0.026771	0.929484
	O3092	O	0.804195	0.036072	0.966745
	C3093	C	0.049368	0.100792	0.714809
	O3094	O	0.066675	0.120074	0.691605
	O3095	O	0.032076	0.081515	0.737978
	C3096	C	0.848194	0.002247	0.367850
	O3097	O	0.865617	-0.002633	0.359060
	O3098	O	0.830765	0.007132	0.376605
	C3099	C	0.565586	0.794322	0.372050
	O3100	O	0.563095	0.777967	0.408529
	O3101	O	0.568084	0.810656	0.335571
	C3102	C	0.067849	0.852683	0.631032
	O3103	O	0.052387	0.831840	0.655162
	O3104	O	0.083337	0.873522	0.606938
	C3105	C	0.182582	0.230115	0.991765
	O3106	O	0.172628	0.247530	0.970945
	O3107	O	0.192530	0.212704	1.012549
	C3108	C	0.040572	0.096431	0.054701
	O3109	O	0.061268	0.112318	0.035660
	O3110	O	0.019902	0.080539	0.073776
	C3111	C	0.421942	0.346028	0.138905
	O3112	O	0.432738	0.357575	0.105486
	O3113	O	0.411115	0.334459	0.172323
	C3114	C	0.824844	0.043624	0.581421
	O3115	O	0.831887	0.023857	0.594981
	O3116	O	0.817765	0.063373	0.567826
	C3117	C	0.259917	0.230309	0.294892
	O3118	O	0.234244	0.219179	0.273895
	O3119	O	0.285605	0.241443	0.315854
	C3120	C	0.234637	0.123535	0.122285
	O3121	O	0.237595	0.101485	0.140649
	O3122	O	0.231703	0.145581	0.103956
	C3123	C	0.127931	0.541183	0.064808
	O3124	O	0.115446	0.519166	0.048935
	O3125	O	0.140390	0.563174	0.080716
	C3126	C	0.810080	0.182841	0.587827
	O3127	O	0.832240	0.183568	0.583129
	O3128	O	0.787945	0.182141	0.592489
	C3129	C	0.335019	0.797056	0.166558
	O3130	O	0.333422	0.813323	0.130257
	O3131	O	0.336586	0.780766	0.202859
	C3132	C	0.087940	0.857457	0.254570
	O3133	O	0.090462	0.835236	0.262898
	O3134	O	0.085418	0.879679	0.246242
	C3135	C	0.449152	0.466349	0.699862
	O3136	O	0.425441	0.459763	0.672316
	O3137	O	0.472848	0.472930	0.727444
	C3138	C	0.860659	0.186094	0.889695
	O3139	O	0.866658	0.175720	0.929555
	O3140	O	0.854691	0.196491	0.849835
	C3141	C	0.087669	0.199005	0.006264
	O3142	O	0.083653	0.184637	-0.019966
	O3143	O	0.091665	0.213372	0.032493
	C3144	C	0.804965	0.833225	0.593023
	O3145	O	0.815869	0.832059	0.566189
	O3146	O	0.794054	0.834413	0.619857
	C3147	C	0.993759	0.562525	0.492199
	O3148	O	0.988363	0.576126	0.508890
	O3149	O	0.999154	0.548925	0.475508
	C3150	C	0.136199	0.118762	0.699399
	O3151	O	0.112639	0.096789	0.696196
	O3152	O	0.159722	0.140717	0.702567
	C3153	C	0.388189	0.511352	0.159297
	O3154	O	0.406440	0.505365	0.190118
	O3155	O	0.369932	0.517344	0.128441
	C3156	C	0.963089	0.379594	0.193285
	O3157	O	0.981317	0.393071	0.169405
	O3158	O	0.944867	0.366112	0.217201
	C3159	C	0.216837	0.127872	0.642955
	O3160	O	0.221590	0.110978	0.633025
	O3161	O	0.212098	0.144770	0.652849
