data_Molecule from CHK

_cell_length_a		32.668983
_cell_length_b		32.666675
_cell_length_c		34.992682
_cell_angle_alpha	90.083640
_cell_angle_beta	89.983768
_cell_angle_gamma	89.986192
_symmetry_space_group_name_H-M	'P 1'
_symmetry_Int_Tables_number		1

loop_
	_symmetry_equiv_pos_as_xyz
	x,y,z

loop_
	_atom_site_label
	_atom_site_type_symbol
	_atom_site_fract_x
	_atom_site_fract_y
	_atom_site_fract_z
	C0	C	-0.005244	-0.049821	0.056657
	C1	C	-0.006126	-0.007550	0.056209
	C2	C	-0.024447	0.013420	0.086655
	C3	C	-0.044619	-0.007579	0.115484
	C4	C	-0.045276	-0.050525	0.114890
	C5	C	-0.024247	-0.071167	0.086360
	C6	C	0.013901	0.006552	0.019751
	C7	C	0.015659	-0.064404	0.020953
	N8	N	0.025585	-0.029077	-0.000574
	O9	O	0.022900	-0.098725	0.010955
	O10	O	0.018908	0.040506	0.007698
	C11	C	-0.062689	0.023852	0.142360
	C12	C	-0.024501	0.057904	0.096551
	N13	N	-0.047629	0.062687	0.130332
	O14	O	-0.007174	0.085125	0.080242
	O15	O	-0.085815	0.018590	0.168390
	C16	C	-0.024308	-0.115827	0.095497
	C17	C	-0.063059	-0.082310	0.141431
	N18	N	-0.047911	-0.121030	0.128852
	O19	O	-0.085824	-0.077570	0.167838
	O20	O	-0.006700	-0.143039	0.079363
	C21	C	-0.031962	0.138678	0.209037
	C22	C	-0.035044	0.101215	0.189661
	O23	O	-0.025544	0.066249	0.208040
	C24	C	-0.048547	0.100054	0.151499
	C25	C	-0.057933	0.137282	0.133106
	O26	O	-0.076072	0.136654	0.098469
	C27	C	-0.047823	0.175103	0.150065
	C28	C	-0.034067	0.175075	0.187965
	O29	O	-0.021915	0.210266	0.204840
	H30	H	-0.052946	0.138088	0.079812
	H31	H	0.008279	0.210962	0.200563
	H32	H	0.002323	0.070964	0.218701
	C33	C	0.067268	-0.048665	0.901494
	C34	C	0.030025	-0.058221	0.883148
	O35	O	0.030643	-0.076510	0.848549
	C36	C	-0.007806	-0.048304	0.900175
	C37	C	-0.007637	-0.033488	0.937750
	O38	O	-0.042887	-0.021620	0.954673
	C39	C	0.028701	-0.031714	0.958968
	C40	C	0.066185	-0.035429	0.939761
	O41	O	0.101118	-0.025316	0.957965
	H42	H	-0.043905	0.008549	0.950330
	H43	H	0.096062	0.002526	0.968596
	H44	H	0.029193	-0.053463	0.829843
	C45	C	-0.051361	0.211217	0.365768
	C46	C	-0.071929	0.190827	0.336809
	C47	C	-0.050501	0.172522	0.306720
	C48	C	-0.008219	0.172488	0.306814
	C49	C	0.012667	0.191114	0.337131
	C50	C	-0.008416	0.211105	0.366075
	C51	C	-0.116647	0.191051	0.345766
	C52	C	-0.083240	0.229277	0.392122
	N53	N	-0.121940	0.214375	0.379321
	O54	O	-0.078576	0.252010	0.418582
	O55	O	-0.143839	0.173737	0.329370
	C56	C	0.006035	0.153275	0.269971
	C57	C	-0.064916	0.151469	0.271039
	N58	N	-0.029499	0.141705	0.249506
	O59	O	-0.099180	0.144067	0.261039
	O60	O	0.040027	0.148693	0.257804
	C61	C	0.022921	0.229143	0.393022
	C62	C	0.057125	0.191162	0.347054
	N63	N	0.061805	0.214198	0.380920
	O64	O	0.084405	0.173900	0.330694
	O65	O	0.017558	0.252175	0.419144
	C66	C	0.153864	-0.024101	0.836961
	C67	C	0.174829	-0.045135	0.865269
	C68	C	0.217784	-0.045325	0.865001
	C69	C	0.238394	-0.023907	0.836769
	C70	C	0.217083	-0.005985	0.806469
	C71	C	0.174801	-0.006367	0.806248
	C72	C	0.143452	-0.062812	0.892347
	C73	C	0.109338	-0.024592	0.846595
	N74	N	0.104607	-0.047729	0.880334
	O75	O	0.082032	-0.007535	0.830149
	O76	O	0.148754	-0.085744	0.918493
	C77	C	0.283119	-0.024515	0.845632
	C78	C	0.249575	-0.063198	0.891495
	N79	N	0.288310	-0.048174	0.878924
	O80	O	0.244828	-0.085936	0.917879
	O81	O	0.310388	-0.007188	0.829393
	C82	C	0.160674	0.013719	0.769840
	C83	C	0.231620	0.015379	0.771046
	N84	N	0.196284	0.025371	0.749538
	O85	O	0.265921	0.022843	0.761198
	O86	O	0.126712	0.018779	0.757796
	C87	C	0.137720	0.198048	0.459455
	C88	C	0.100246	0.201383	0.440203
	O89	O	0.065255	0.192049	0.458644
	C90	C	0.099125	0.215018	0.402095
	C91	C	0.136372	0.224441	0.383714
	O92	O	0.135782	0.242879	0.349234
	C93	C	0.174162	0.214104	0.400537
	C94	C	0.174042	0.199621	0.438186
	O95	O	0.209290	0.187795	0.455081
	H96	H	0.137232	0.219909	0.330380
	H97	H	0.210220	0.157588	0.450858
	H98	H	0.069943	0.164272	0.469485
	C99	C	0.215735	0.066958	0.651625
	C100	C	0.225204	0.029687	0.633231
	O101	O	0.243383	0.030254	0.598602
	C102	C	0.215293	-0.008111	0.650238
	C103	C	0.200552	-0.007881	0.687823
	O104	O	0.188651	-0.043098	0.704712
	C105	C	0.198881	0.028475	0.709084
	C106	C	0.202617	0.065939	0.689913
	O107	O	0.192618	0.100915	0.708157
	H108	H	0.158473	-0.044046	0.700385
	H109	H	0.164806	0.095929	0.718834
	H110	H	0.220278	0.028789	0.579934
	C111	C	0.190620	0.153419	0.587253
	C112	C	0.211816	0.174454	0.615458
	C113	C	0.211973	0.217408	0.615174
	C114	C	0.190409	0.237969	0.587007
	C115	C	0.172254	0.216585	0.556822
	C116	C	0.172190	0.174300	0.556877
	C117	C	0.229790	0.143131	0.642403
	C118	C	0.191252	0.108907	0.596869
	N119	N	0.214674	0.104251	0.630461
	O120	O	0.174106	0.081553	0.580520
	O121	O	0.252935	0.148489	0.668406
	C122	C	0.191258	0.282739	0.595744
	C123	C	0.230068	0.249246	0.641547
	N124	N	0.215075	0.287978	0.628968
	O125	O	0.252925	0.244531	0.667866
	O126	O	0.173989	0.310014	0.579473
	C127	C	0.152552	0.160054	0.520254
	C128	C	0.150804	0.231009	0.521398
	N129	N	0.140856	0.195597	0.499907
	O130	O	0.143254	0.265277	0.511538
	O131	O	0.147779	0.126057	0.508134
	C132	C	-0.005244	0.283512	0.056657
	C133	C	-0.006126	0.325783	0.056209
	C134	C	-0.024447	0.346753	0.086655
	C135	C	-0.044619	0.325754	0.115484
	C136	C	-0.045276	0.282808	0.114890
	C137	C	-0.024247	0.262167	0.086360
	C138	C	0.013901	0.339885	0.019751
	C139	C	0.015659	0.268930	0.020953
	N140	N	0.025585	0.304257	-0.000574
	O141	O	0.022900	0.234608	0.010955
	O142	O	0.018908	0.373839	0.007698
	C143	C	-0.062689	0.357185	0.142360
	C144	C	-0.024501	0.391237	0.096551
	N145	N	-0.047629	0.396020	0.130332
	O146	O	-0.007174	0.418458	0.080242
	O147	O	-0.085815	0.351923	0.168390
	C148	C	-0.024308	0.217506	0.095497
	C149	C	-0.063059	0.251023	0.141431
	N150	N	-0.047911	0.212303	0.128852
	O151	O	-0.085824	0.255764	0.167838
	O152	O	-0.006700	0.190295	0.079363
	C153	C	-0.031962	0.472012	0.209037
	C154	C	-0.035044	0.434549	0.189661
	O155	O	-0.025544	0.399582	0.208040
	C156	C	-0.048547	0.433387	0.151499
	C157	C	-0.057933	0.470615	0.133106
	O158	O	-0.076072	0.469987	0.098469
	C159	C	-0.047823	0.508436	0.150065
	C160	C	-0.034067	0.508408	0.187965
	O161	O	-0.021915	0.543599	0.204840
	H162	H	-0.052946	0.471421	0.079812
	H163	H	0.008279	0.544295	0.200563
	H164	H	0.002323	0.404298	0.218701
	C165	C	0.067268	0.284668	0.901494
	C166	C	0.030025	0.275113	0.883148
	O167	O	0.030643	0.256824	0.848549
	C168	C	-0.007806	0.285030	0.900175
	C169	C	-0.007637	0.299845	0.937750
	O170	O	-0.042887	0.311713	0.954673
	C171	C	0.028701	0.301619	0.958968
	C172	C	0.066185	0.297905	0.939761
	O173	O	0.101118	0.308018	0.957965
	H174	H	-0.043905	0.341883	0.950330
	H175	H	0.096062	0.335859	0.968596
	H176	H	0.029193	0.279871	0.829843
	C177	C	-0.051361	0.544550	0.365768
	C178	C	-0.071929	0.524161	0.336809
	C179	C	-0.050501	0.505855	0.306720
	C180	C	-0.008219	0.505821	0.306814
	C181	C	0.012667	0.524448	0.337131
	C182	C	-0.008416	0.544439	0.366075
	C183	C	-0.116647	0.524384	0.345766
	C184	C	-0.083240	0.562610	0.392122
	N185	N	-0.121940	0.547708	0.379321
	O186	O	-0.078576	0.585344	0.418582
	O187	O	-0.143839	0.507070	0.329370
	C188	C	0.006035	0.486608	0.269971
	C189	C	-0.064916	0.484802	0.271039
	N190	N	-0.029499	0.475038	0.249506
	O191	O	-0.099180	0.477400	0.261039
	O192	O	0.040027	0.482026	0.257804
	C193	C	0.022921	0.562476	0.393022
	C194	C	0.057125	0.524495	0.347054
	N195	N	0.061805	0.547531	0.380920
	O196	O	0.084405	0.507234	0.330694
	O197	O	0.017558	0.585509	0.419144
	C198	C	0.153864	0.309233	0.836961
	C199	C	0.174829	0.288198	0.865269
	C200	C	0.217784	0.288008	0.865001
	C201	C	0.238394	0.309426	0.836769
	C202	C	0.217083	0.327348	0.806469
	C203	C	0.174801	0.326966	0.806248
	C204	C	0.143452	0.270521	0.892347
	C205	C	0.109338	0.308741	0.846595
	N206	N	0.104607	0.285605	0.880334
	O207	O	0.082032	0.325798	0.830149
	O208	O	0.148754	0.247589	0.918493
	C209	C	0.283119	0.308818	0.845632
	C210	C	0.249575	0.270135	0.891495
	N211	N	0.288310	0.285159	0.878924
	O212	O	0.244828	0.247397	0.917879
	O213	O	0.310388	0.326146	0.829393
	C214	C	0.160674	0.347052	0.769840
	C215	C	0.231620	0.348712	0.771046
	N216	N	0.196284	0.358704	0.749538
	O217	O	0.265921	0.356177	0.761198
	O218	O	0.126712	0.352112	0.757796
	C219	C	0.137720	0.531382	0.459455
	C220	C	0.100246	0.534716	0.440203
	O221	O	0.065255	0.525382	0.458644
	C222	C	0.099125	0.548351	0.402095
	C223	C	0.136372	0.557774	0.383714
	O224	O	0.135782	0.576213	0.349234
	C225	C	0.174162	0.547437	0.400537
	C226	C	0.174042	0.532954	0.438186
	O227	O	0.209290	0.521128	0.455081
	H228	H	0.137232	0.553243	0.330380
	H229	H	0.210220	0.490922	0.450858
	H230	H	0.069943	0.497606	0.469485
	C231	C	0.215735	0.400291	0.651625
	C232	C	0.225204	0.363021	0.633231
	O233	O	0.243383	0.363587	0.598602
	C234	C	0.215293	0.325223	0.650238
	C235	C	0.200552	0.325453	0.687823
	O236	O	0.188651	0.290235	0.704712
	C237	C	0.198881	0.361808	0.709084
	C238	C	0.202617	0.399272	0.689913
	O239	O	0.192618	0.434248	0.708157
	H240	H	0.158473	0.289287	0.700385
	H241	H	0.164806	0.429262	0.718834
	H242	H	0.220278	0.362123	0.579934
	C243	C	0.190620	0.486752	0.587253
	C244	C	0.211816	0.507787	0.615458
	C245	C	0.211973	0.550741	0.615174
	C246	C	0.190409	0.571303	0.587007
	C247	C	0.172254	0.549918	0.556822
	C248	C	0.172190	0.507633	0.556877
	C249	C	0.229790	0.476464	0.642403
	C250	C	0.191252	0.442240	0.596869
	N251	N	0.214674	0.437585	0.630461
	O252	O	0.174106	0.414887	0.580520
	O253	O	0.252935	0.481822	0.668406
	C254	C	0.191258	0.616072	0.595744
	C255	C	0.230068	0.582579	0.641547
	N256	N	0.215075	0.621311	0.628968
	O257	O	0.252925	0.577864	0.667866
	O258	O	0.173989	0.643347	0.579473
	C259	C	0.152552	0.493387	0.520254
	C260	C	0.150804	0.564343	0.521398
	N261	N	0.140856	0.528930	0.499907
	O262	O	0.143254	0.598610	0.511538
	O263	O	0.147779	0.459390	0.508134
	C264	C	-0.005244	0.616845	0.056657
	C265	C	-0.006126	0.659116	0.056209
	C266	C	-0.024447	0.680086	0.086655
	C267	C	-0.044619	0.659087	0.115484
	C268	C	-0.045276	0.616142	0.114890
	C269	C	-0.024247	0.595500	0.086360
	C270	C	0.013901	0.673219	0.019751
	C271	C	0.015659	0.602263	0.020953
	N272	N	0.025585	0.637590	-0.000574
	O273	O	0.022900	0.567941	0.010955
	O274	O	0.018908	0.707173	0.007698
	C275	C	-0.062689	0.690519	0.142360
	C276	C	-0.024501	0.724570	0.096551
	N277	N	-0.047629	0.729354	0.130332
	O278	O	-0.007174	0.751792	0.080242
	O279	O	-0.085815	0.685257	0.168390
	C280	C	-0.024308	0.550840	0.095497
	C281	C	-0.063059	0.584357	0.141431
	N282	N	-0.047911	0.545637	0.128852
	O283	O	-0.085824	0.589097	0.167838
	O284	O	-0.006700	0.523628	0.079363
	C285	C	-0.031962	0.805345	0.209037
	C286	C	-0.035044	0.767882	0.189661
	O287	O	-0.025544	0.732915	0.208040
	C288	C	-0.048547	0.766721	0.151499
	C289	C	-0.057933	0.803949	0.133106
	O290	O	-0.076072	0.803320	0.098469
	C291	C	-0.047823	0.841770	0.150065
	C292	C	-0.034067	0.841742	0.187965
	O293	O	-0.021915	0.876932	0.204840
	H294	H	-0.052946	0.804755	0.079812
	H295	H	0.008279	0.877628	0.200563
	H296	H	0.002323	0.737631	0.218701
	C297	C	0.067268	0.618001	0.901494
	C298	C	0.030025	0.608446	0.883148
	O299	O	0.030643	0.590157	0.848549
	C300	C	-0.007806	0.618363	0.900175
	C301	C	-0.007637	0.633178	0.937750
	O302	O	-0.042887	0.645047	0.954673
	C303	C	0.028701	0.634953	0.958968
	C304	C	0.066185	0.631238	0.939761
	O305	O	0.101118	0.641351	0.957965
	H306	H	-0.043905	0.675216	0.950330
	H307	H	0.096062	0.669192	0.968596
	H308	H	0.029193	0.613204	0.829843
	C309	C	-0.051361	0.877883	0.365768
	C310	C	-0.071929	0.857494	0.336809
	C311	C	-0.050501	0.839188	0.306720
	C312	C	-0.008219	0.839154	0.306814
	C313	C	0.012667	0.857781	0.337131
	C314	C	-0.008416	0.877772	0.366075
	C315	C	-0.116647	0.857717	0.345766
	C316	C	-0.083240	0.895944	0.392122
	N317	N	-0.121940	0.881042	0.379321
	O318	O	-0.078576	0.918677	0.418582
	O319	O	-0.143839	0.840403	0.329370
	C320	C	0.006035	0.819941	0.269971
	C321	C	-0.064916	0.818136	0.271039
	N322	N	-0.029499	0.808371	0.249506
	O323	O	-0.099180	0.810734	0.261039
	O324	O	0.040027	0.815360	0.257804
	C325	C	0.022921	0.895810	0.393022
	C326	C	0.057125	0.857829	0.347054
	N327	N	0.061805	0.880864	0.380920
	O328	O	0.084405	0.840567	0.330694
	O329	O	0.017558	0.918842	0.419144
	C330	C	0.153864	0.642566	0.836961
	C331	C	0.174829	0.621532	0.865269
	C332	C	0.217784	0.621342	0.865001
	C333	C	0.238394	0.642760	0.836769
	C334	C	0.217083	0.660682	0.806469
	C335	C	0.174801	0.660299	0.806248
	C336	C	0.143452	0.603854	0.892347
	C337	C	0.109338	0.642074	0.846595
	N338	N	0.104607	0.618938	0.880334
	O339	O	0.082032	0.659132	0.830149
	O340	O	0.148754	0.580923	0.918493
	C341	C	0.283119	0.642152	0.845632
	C342	C	0.249575	0.603469	0.891495
	N343	N	0.288310	0.618493	0.878924
	O344	O	0.244828	0.580730	0.917879
	O345	O	0.310388	0.659479	0.829393
	C346	C	0.160674	0.680386	0.769840
	C347	C	0.231620	0.682045	0.771046
	N348	N	0.196284	0.692037	0.749538
	O349	O	0.265921	0.689510	0.761198
	O350	O	0.126712	0.685445	0.757796
	C351	C	0.137720	0.864715	0.459455
	C352	C	0.100246	0.868049	0.440203
	O353	O	0.065255	0.858716	0.458644
	C354	C	0.099125	0.881685	0.402095
	C355	C	0.136372	0.891107	0.383714
	O356	O	0.135782	0.909546	0.349234
	C357	C	0.174162	0.880770	0.400537
	C358	C	0.174042	0.866288	0.438186
	O359	O	0.209290	0.854462	0.455081
	H360	H	0.137232	0.886576	0.330380
	H361	H	0.210220	0.824255	0.450858
	H362	H	0.069943	0.830939	0.469485
	C363	C	0.215735	0.733624	0.651625
	C364	C	0.225204	0.696354	0.633231
	O365	O	0.243383	0.696921	0.598602
	C366	C	0.215293	0.658556	0.650238
	C367	C	0.200552	0.658786	0.687823
	O368	O	0.188651	0.623569	0.704712
	C369	C	0.198881	0.695142	0.709084
	C370	C	0.202617	0.732605	0.689913
	O371	O	0.192618	0.767582	0.708157
	H372	H	0.158473	0.622621	0.700385
	H373	H	0.164806	0.762595	0.718834
	H374	H	0.220278	0.695456	0.579934
	C375	C	0.190620	0.820086	0.587253
	C376	C	0.211816	0.841120	0.615458
	C377	C	0.211973	0.884075	0.615174
	C378	C	0.190409	0.904636	0.587007
	C379	C	0.172254	0.883252	0.556822
	C380	C	0.172190	0.840966	0.556877
	C381	C	0.229790	0.809797	0.642403
	C382	C	0.191252	0.775574	0.596869
	N383	N	0.214674	0.770918	0.630461
	O384	O	0.174106	0.748220	0.580520
	O385	O	0.252935	0.815156	0.668406
	C386	C	0.191258	0.949405	0.595744
	C387	C	0.230068	0.915913	0.641547
	N388	N	0.215075	0.954644	0.628968
	O389	O	0.252925	0.911198	0.667866
	O390	O	0.173989	0.976681	0.579473
	C391	C	0.152552	0.826721	0.520254
	C392	C	0.150804	0.897676	0.521398
	N393	N	0.140856	0.862263	0.499907
	O394	O	0.143254	0.931943	0.511538
	O395	O	0.147779	0.792723	0.508134
	C396	C	0.328090	-0.049821	0.056657
	C397	C	0.327207	-0.007550	0.056209
	C398	C	0.308886	0.013420	0.086655
	C399	C	0.288714	-0.007579	0.115484
	C400	C	0.288057	-0.050525	0.114890
	C401	C	0.309087	-0.071167	0.086360
	C402	C	0.347234	0.006552	0.019751
	C403	C	0.348993	-0.064404	0.020953
	N404	N	0.358918	-0.029077	-0.000574
	O405	O	0.356234	-0.098725	0.010955
	O406	O	0.352241	0.040506	0.007698
	C407	C	0.270645	0.023852	0.142360
	C408	C	0.308833	0.057904	0.096551
	N409	N	0.285704	0.062687	0.130332
	O410	O	0.326160	0.085125	0.080242
	O411	O	0.247518	0.018590	0.168390
	C412	C	0.309026	-0.115827	0.095497
	C413	C	0.270275	-0.082310	0.141431
	N414	N	0.285422	-0.121030	0.128852
	O415	O	0.247509	-0.077570	0.167838
	O416	O	0.326633	-0.143039	0.079363
	C417	C	0.301371	0.138678	0.209037
	C418	C	0.298289	0.101215	0.189661
	O419	O	0.307790	0.066249	0.208040
	C420	C	0.284786	0.100054	0.151499
	C421	C	0.275400	0.137282	0.133106
	O422	O	0.257261	0.136654	0.098469
	C423	C	0.285510	0.175103	0.150065
	C424	C	0.299266	0.175075	0.187965
	O425	O	0.311418	0.210266	0.204840
	H426	H	0.280387	0.138088	0.079812
	H427	H	0.341613	0.210962	0.200563
	H428	H	0.335657	0.070964	0.218701
	C429	C	0.400601	-0.048665	0.901494
	C430	C	0.363358	-0.058221	0.883148
	O431	O	0.363977	-0.076510	0.848549
	C432	C	0.325528	-0.048304	0.900175
	C433	C	0.325697	-0.033488	0.937750
	O434	O	0.290446	-0.021620	0.954673
	C435	C	0.362035	-0.031714	0.958968
	C436	C	0.399518	-0.035429	0.939761
	O437	O	0.434451	-0.025316	0.957965
	H438	H	0.289428	0.008549	0.950330
	H439	H	0.429396	0.002526	0.968596
	H440	H	0.362526	-0.053463	0.829843
	C441	C	0.281973	0.211217	0.365768
	C442	C	0.261404	0.190827	0.336809
	C443	C	0.282833	0.172522	0.306720
	C444	C	0.325115	0.172488	0.306814
	C445	C	0.346001	0.191114	0.337131
	C446	C	0.324917	0.211105	0.366075
	C447	C	0.216687	0.191051	0.345766
	C448	C	0.250093	0.229277	0.392122
	N449	N	0.211393	0.214375	0.379321
	O450	O	0.254758	0.252010	0.418582
	O451	O	0.189495	0.173737	0.329370
	C452	C	0.339368	0.153275	0.269971
	C453	C	0.268417	0.151469	0.271039
	N454	N	0.303834	0.141705	0.249506
	O455	O	0.234153	0.144067	0.261039
	O456	O	0.373360	0.148693	0.257804
	C457	C	0.356254	0.229143	0.393022
	C458	C	0.390458	0.191162	0.347054
	N459	N	0.395138	0.214198	0.380920
	O460	O	0.417738	0.173900	0.330694
	O461	O	0.350891	0.252175	0.419144
	C462	C	0.487198	-0.024101	0.836961
	C463	C	0.508163	-0.045135	0.865269
	C464	C	0.551117	-0.045325	0.865001
	C465	C	0.571727	-0.023907	0.836769
	C466	C	0.550417	-0.005985	0.806469
	C467	C	0.508134	-0.006367	0.806248
	C468	C	0.476785	-0.062812	0.892347
	C469	C	0.442671	-0.024592	0.846595
	N470	N	0.437940	-0.047729	0.880334
	O471	O	0.415366	-0.007535	0.830149
	O472	O	0.482088	-0.085744	0.918493
	C473	C	0.616452	-0.024515	0.845632
	C474	C	0.582908	-0.063198	0.891495
	N475	N	0.621644	-0.048174	0.878924
	O476	O	0.578161	-0.085936	0.917879
	O477	O	0.643721	-0.007188	0.829393
	C478	C	0.494007	0.013719	0.769840
	C479	C	0.564953	0.015379	0.771046
	N480	N	0.529617	0.025371	0.749538
	O481	O	0.599254	0.022843	0.761198
	O482	O	0.460046	0.018779	0.757796
	C483	C	0.471054	0.198048	0.459455
	C484	C	0.433579	0.201383	0.440203
	O485	O	0.398588	0.192049	0.458644
	C486	C	0.432458	0.215018	0.402095
	C487	C	0.469705	0.224441	0.383714
	O488	O	0.469116	0.242879	0.349234
	C489	C	0.507495	0.214104	0.400537
	C490	C	0.507375	0.199621	0.438186
	O491	O	0.542624	0.187795	0.455081
	H492	H	0.470566	0.219909	0.330380
	H493	H	0.543553	0.157588	0.450858
	H494	H	0.403277	0.164272	0.469485
	C495	C	0.549068	0.066958	0.651625
	C496	C	0.558538	0.029687	0.633231
	O497	O	0.576716	0.030254	0.598602
	C498	C	0.548626	-0.008111	0.650238
	C499	C	0.533885	-0.007881	0.687823
	O500	O	0.521985	-0.043098	0.704712
	C501	C	0.532214	0.028475	0.709084
	C502	C	0.535950	0.065939	0.689913
	O503	O	0.525952	0.100915	0.708157
	H504	H	0.491806	-0.044046	0.700385
	H505	H	0.498139	0.095929	0.718834
	H506	H	0.553611	0.028789	0.579934
	C507	C	0.523953	0.153419	0.587253
	C508	C	0.545150	0.174454	0.615458
	C509	C	0.545306	0.217408	0.615174
	C510	C	0.523743	0.237969	0.587007
	C511	C	0.505587	0.216585	0.556822
	C512	C	0.505524	0.174300	0.556877
	C513	C	0.563123	0.143131	0.642403
	C514	C	0.524585	0.108907	0.596869
	N515	N	0.548007	0.104251	0.630461
	O516	O	0.507439	0.081553	0.580520
	O517	O	0.586268	0.148489	0.668406
	C518	C	0.524592	0.282739	0.595744
	C519	C	0.563401	0.249246	0.641547
	N520	N	0.548408	0.287978	0.628968
	O521	O	0.586259	0.244531	0.667866
	O522	O	0.507322	0.310014	0.579473
	C523	C	0.485885	0.160054	0.520254
	C524	C	0.484137	0.231009	0.521398
	N525	N	0.474189	0.195597	0.499907
	O526	O	0.476588	0.265277	0.511538
	O527	O	0.481112	0.126057	0.508134
	C528	C	0.328090	0.283512	0.056657
	C529	C	0.327207	0.325783	0.056209
	C530	C	0.308886	0.346753	0.086655
	C531	C	0.288714	0.325754	0.115484
	C532	C	0.288057	0.282808	0.114890
	C533	C	0.309087	0.262167	0.086360
	C534	C	0.347234	0.339885	0.019751
	C535	C	0.348993	0.268930	0.020953
	N536	N	0.358918	0.304257	-0.000574
	O537	O	0.356234	0.234608	0.010955
	O538	O	0.352241	0.373839	0.007698
	C539	C	0.270645	0.357185	0.142360
	C540	C	0.308833	0.391237	0.096551
	N541	N	0.285704	0.396020	0.130332
	O542	O	0.326160	0.418458	0.080242
	O543	O	0.247518	0.351923	0.168390
	C544	C	0.309026	0.217506	0.095497
	C545	C	0.270275	0.251023	0.141431
	N546	N	0.285422	0.212303	0.128852
	O547	O	0.247509	0.255764	0.167838
	O548	O	0.326633	0.190295	0.079363
	C549	C	0.301371	0.472012	0.209037
	C550	C	0.298289	0.434549	0.189661
	O551	O	0.307790	0.399582	0.208040
	C552	C	0.284786	0.433387	0.151499
	C553	C	0.275400	0.470615	0.133106
	O554	O	0.257261	0.469987	0.098469
	C555	C	0.285510	0.508436	0.150065
	C556	C	0.299266	0.508408	0.187965
	O557	O	0.311418	0.543599	0.204840
	H558	H	0.280387	0.471421	0.079812
	H559	H	0.341613	0.544295	0.200563
	H560	H	0.335657	0.404298	0.218701
	C561	C	0.400601	0.284668	0.901494
	C562	C	0.363358	0.275113	0.883148
	O563	O	0.363977	0.256824	0.848549
	C564	C	0.325528	0.285030	0.900175
	C565	C	0.325697	0.299845	0.937750
	O566	O	0.290446	0.311713	0.954673
	C567	C	0.362035	0.301619	0.958968
	C568	C	0.399518	0.297905	0.939761
	O569	O	0.434451	0.308018	0.957965
	H570	H	0.289428	0.341883	0.950330
	H571	H	0.429396	0.335859	0.968596
	H572	H	0.362526	0.279871	0.829843
	C573	C	0.281973	0.544550	0.365768
	C574	C	0.261404	0.524161	0.336809
	C575	C	0.282833	0.505855	0.306720
	C576	C	0.325115	0.505821	0.306814
	C577	C	0.346001	0.524448	0.337131
	C578	C	0.324917	0.544439	0.366075
	C579	C	0.216687	0.524384	0.345766
	C580	C	0.250093	0.562610	0.392122
	N581	N	0.211393	0.547708	0.379321
	O582	O	0.254758	0.585344	0.418582
	O583	O	0.189495	0.507070	0.329370
	C584	C	0.339368	0.486608	0.269971
	C585	C	0.268417	0.484802	0.271039
	N586	N	0.303834	0.475038	0.249506
	O587	O	0.234153	0.477400	0.261039
	O588	O	0.373360	0.482026	0.257804
	C589	C	0.356254	0.562476	0.393022
	C590	C	0.390458	0.524495	0.347054
	N591	N	0.395138	0.547531	0.380920
	O592	O	0.417738	0.507234	0.330694
	O593	O	0.350891	0.585509	0.419144
	C594	C	0.487198	0.309233	0.836961
	C595	C	0.508163	0.288198	0.865269
	C596	C	0.551117	0.288008	0.865001
	C597	C	0.571727	0.309426	0.836769
	C598	C	0.550417	0.327348	0.806469
	C599	C	0.508134	0.326966	0.806248
	C600	C	0.476785	0.270521	0.892347
	C601	C	0.442671	0.308741	0.846595
	N602	N	0.437940	0.285605	0.880334
	O603	O	0.415366	0.325798	0.830149
	O604	O	0.482088	0.247589	0.918493
	C605	C	0.616452	0.308818	0.845632
	C606	C	0.582908	0.270135	0.891495
	N607	N	0.621644	0.285159	0.878924
	O608	O	0.578161	0.247397	0.917879
	O609	O	0.643721	0.326146	0.829393
	C610	C	0.494007	0.347052	0.769840
	C611	C	0.564953	0.348712	0.771046
	N612	N	0.529617	0.358704	0.749538
	O613	O	0.599254	0.356177	0.761198
	O614	O	0.460046	0.352112	0.757796
	C615	C	0.471054	0.531382	0.459455
	C616	C	0.433579	0.534716	0.440203
	O617	O	0.398588	0.525382	0.458644
	C618	C	0.432458	0.548351	0.402095
	C619	C	0.469705	0.557774	0.383714
	O620	O	0.469116	0.576213	0.349234
	C621	C	0.507495	0.547437	0.400537
	C622	C	0.507375	0.532954	0.438186
	O623	O	0.542624	0.521128	0.455081
	H624	H	0.470566	0.553243	0.330380
	H625	H	0.543553	0.490922	0.450858
	H626	H	0.403277	0.497606	0.469485
	C627	C	0.549068	0.400291	0.651625
	C628	C	0.558538	0.363021	0.633231
	O629	O	0.576716	0.363587	0.598602
	C630	C	0.548626	0.325223	0.650238
	C631	C	0.533885	0.325453	0.687823
	O632	O	0.521985	0.290235	0.704712
	C633	C	0.532214	0.361808	0.709084
	C634	C	0.535950	0.399272	0.689913
	O635	O	0.525952	0.434248	0.708157
	H636	H	0.491806	0.289287	0.700385
	H637	H	0.498139	0.429262	0.718834
	H638	H	0.553611	0.362123	0.579934
	C639	C	0.523953	0.486752	0.587253
	C640	C	0.545150	0.507787	0.615458
	C641	C	0.545306	0.550741	0.615174
	C642	C	0.523743	0.571303	0.587007
	C643	C	0.505587	0.549918	0.556822
	C644	C	0.505524	0.507633	0.556877
	C645	C	0.563123	0.476464	0.642403
	C646	C	0.524585	0.442240	0.596869
	N647	N	0.548007	0.437585	0.630461
	O648	O	0.507439	0.414887	0.580520
	O649	O	0.586268	0.481822	0.668406
	C650	C	0.524592	0.616072	0.595744
	C651	C	0.563401	0.582579	0.641547
	N652	N	0.548408	0.621311	0.628968
	O653	O	0.586259	0.577864	0.667866
	O654	O	0.507322	0.643347	0.579473
	C655	C	0.485885	0.493387	0.520254
	C656	C	0.484137	0.564343	0.521398
	N657	N	0.474189	0.528930	0.499907
	O658	O	0.476588	0.598610	0.511538
	O659	O	0.481112	0.459390	0.508134
	C660	C	0.328090	0.616845	0.056657
	C661	C	0.327207	0.659116	0.056209
	C662	C	0.308886	0.680086	0.086655
	C663	C	0.288714	0.659087	0.115484
	C664	C	0.288057	0.616142	0.114890
	C665	C	0.309087	0.595500	0.086360
	C666	C	0.347234	0.673219	0.019751
	C667	C	0.348993	0.602263	0.020953
	N668	N	0.358918	0.637590	-0.000574
	O669	O	0.356234	0.567941	0.010955
	O670	O	0.352241	0.707173	0.007698
	C671	C	0.270645	0.690519	0.142360
	C672	C	0.308833	0.724570	0.096551
	N673	N	0.285704	0.729354	0.130332
	O674	O	0.326160	0.751792	0.080242
	O675	O	0.247518	0.685257	0.168390
	C676	C	0.309026	0.550840	0.095497
	C677	C	0.270275	0.584357	0.141431
	N678	N	0.285422	0.545637	0.128852
	O679	O	0.247509	0.589097	0.167838
	O680	O	0.326633	0.523628	0.079363
	C681	C	0.301371	0.805345	0.209037
	C682	C	0.298289	0.767882	0.189661
	O683	O	0.307790	0.732915	0.208040
	C684	C	0.284786	0.766721	0.151499
	C685	C	0.275400	0.803949	0.133106
	O686	O	0.257261	0.803320	0.098469
	C687	C	0.285510	0.841770	0.150065
	C688	C	0.299266	0.841742	0.187965
	O689	O	0.311418	0.876932	0.204840
	H690	H	0.280387	0.804755	0.079812
	H691	H	0.341613	0.877628	0.200563
	H692	H	0.335657	0.737631	0.218701
	C693	C	0.400601	0.618001	0.901494
	C694	C	0.363358	0.608446	0.883148
	O695	O	0.363977	0.590157	0.848549
	C696	C	0.325528	0.618363	0.900175
	C697	C	0.325697	0.633178	0.937750
	O698	O	0.290446	0.645047	0.954673
	C699	C	0.362035	0.634953	0.958968
	C700	C	0.399518	0.631238	0.939761
	O701	O	0.434451	0.641351	0.957965
	H702	H	0.289428	0.675216	0.950330
	H703	H	0.429396	0.669192	0.968596
	H704	H	0.362526	0.613204	0.829843
	C705	C	0.281973	0.877883	0.365768
	C706	C	0.261404	0.857494	0.336809
	C707	C	0.282833	0.839188	0.306720
	C708	C	0.325115	0.839154	0.306814
	C709	C	0.346001	0.857781	0.337131
	C710	C	0.324917	0.877772	0.366075
	C711	C	0.216687	0.857717	0.345766
	C712	C	0.250093	0.895944	0.392122
	N713	N	0.211393	0.881042	0.379321
	O714	O	0.254758	0.918677	0.418582
	O715	O	0.189495	0.840403	0.329370
	C716	C	0.339368	0.819941	0.269971
	C717	C	0.268417	0.818136	0.271039
	N718	N	0.303834	0.808371	0.249506
	O719	O	0.234153	0.810734	0.261039
	O720	O	0.373360	0.815360	0.257804
	C721	C	0.356254	0.895810	0.393022
	C722	C	0.390458	0.857829	0.347054
	N723	N	0.395138	0.880864	0.380920
	O724	O	0.417738	0.840567	0.330694
	O725	O	0.350891	0.918842	0.419144
	C726	C	0.487198	0.642566	0.836961
	C727	C	0.508163	0.621532	0.865269
	C728	C	0.551117	0.621342	0.865001
	C729	C	0.571727	0.642760	0.836769
	C730	C	0.550417	0.660682	0.806469
	C731	C	0.508134	0.660299	0.806248
	C732	C	0.476785	0.603854	0.892347
	C733	C	0.442671	0.642074	0.846595
	N734	N	0.437940	0.618938	0.880334
	O735	O	0.415366	0.659132	0.830149
	O736	O	0.482088	0.580923	0.918493
	C737	C	0.616452	0.642152	0.845632
	C738	C	0.582908	0.603469	0.891495
	N739	N	0.621644	0.618493	0.878924
	O740	O	0.578161	0.580730	0.917879
	O741	O	0.643721	0.659479	0.829393
	C742	C	0.494007	0.680386	0.769840
	C743	C	0.564953	0.682045	0.771046
	N744	N	0.529617	0.692037	0.749538
	O745	O	0.599254	0.689510	0.761198
	O746	O	0.460046	0.685445	0.757796
	C747	C	0.471054	0.864715	0.459455
	C748	C	0.433579	0.868049	0.440203
	O749	O	0.398588	0.858716	0.458644
	C750	C	0.432458	0.881685	0.402095
	C751	C	0.469705	0.891107	0.383714
	O752	O	0.469116	0.909546	0.349234
	C753	C	0.507495	0.880770	0.400537
	C754	C	0.507375	0.866288	0.438186
	O755	O	0.542624	0.854462	0.455081
	H756	H	0.470566	0.886576	0.330380
	H757	H	0.543553	0.824255	0.450858
	H758	H	0.403277	0.830939	0.469485
	C759	C	0.549068	0.733624	0.651625
	C760	C	0.558538	0.696354	0.633231
	O761	O	0.576716	0.696921	0.598602
	C762	C	0.548626	0.658556	0.650238
	C763	C	0.533885	0.658786	0.687823
	O764	O	0.521985	0.623569	0.704712
	C765	C	0.532214	0.695142	0.709084
	C766	C	0.535950	0.732605	0.689913
	O767	O	0.525952	0.767582	0.708157
	H768	H	0.491806	0.622621	0.700385
	H769	H	0.498139	0.762595	0.718834
	H770	H	0.553611	0.695456	0.579934
	C771	C	0.523953	0.820086	0.587253
	C772	C	0.545150	0.841120	0.615458
	C773	C	0.545306	0.884075	0.615174
	C774	C	0.523743	0.904636	0.587007
	C775	C	0.505587	0.883252	0.556822
	C776	C	0.505524	0.840966	0.556877
	C777	C	0.563123	0.809797	0.642403
	C778	C	0.524585	0.775574	0.596869
	N779	N	0.548007	0.770918	0.630461
	O780	O	0.507439	0.748220	0.580520
	O781	O	0.586268	0.815156	0.668406
	C782	C	0.524592	0.949405	0.595744
	C783	C	0.563401	0.915913	0.641547
	N784	N	0.548408	0.954644	0.628968
	O785	O	0.586259	0.911198	0.667866
	O786	O	0.507322	0.976681	0.579473
	C787	C	0.485885	0.826721	0.520254
	C788	C	0.484137	0.897676	0.521398
	N789	N	0.474189	0.862263	0.499907
	O790	O	0.476588	0.931943	0.511538
	O791	O	0.481112	0.792723	0.508134
	C792	C	0.661423	-0.049821	0.056657
	C793	C	0.660541	-0.007550	0.056209
	C794	C	0.642220	0.013420	0.086655
	C795	C	0.622048	-0.007579	0.115484
	C796	C	0.621390	-0.050525	0.114890
	C797	C	0.642420	-0.071167	0.086360
	C798	C	0.680568	0.006552	0.019751
	C799	C	0.682326	-0.064404	0.020953
	N800	N	0.692251	-0.029077	-0.000574
	O801	O	0.689567	-0.098725	0.010955
	O802	O	0.685574	0.040506	0.007698
	C803	C	0.603978	0.023852	0.142360
	C804	C	0.642166	0.057904	0.096551
	N805	N	0.619037	0.062687	0.130332
	O806	O	0.659493	0.085125	0.080242
	O807	O	0.580851	0.018590	0.168390
	C808	C	0.642359	-0.115827	0.095497
	C809	C	0.603608	-0.082310	0.141431
	N810	N	0.618755	-0.121030	0.128852
	O811	O	0.580843	-0.077570	0.167838
	O812	O	0.659966	-0.143039	0.079363
	C813	C	0.634705	0.138678	0.209037
	C814	C	0.631623	0.101215	0.189661
	O815	O	0.641123	0.066249	0.208040
	C816	C	0.618119	0.100054	0.151499
	C817	C	0.608733	0.137282	0.133106
	O818	O	0.590594	0.136654	0.098469
	C819	C	0.618843	0.175103	0.150065
	C820	C	0.632600	0.175075	0.187965
	O821	O	0.644751	0.210266	0.204840
	H822	H	0.613720	0.138088	0.079812
	H823	H	0.674946	0.210962	0.200563
	H824	H	0.668990	0.070964	0.218701
	C825	C	0.733934	-0.048665	0.901494
	C826	C	0.696692	-0.058221	0.883148
	O827	O	0.697310	-0.076510	0.848549
	C828	C	0.658861	-0.048304	0.900175
	C829	C	0.659030	-0.033488	0.937750
	O830	O	0.623780	-0.021620	0.954673
	C831	C	0.695368	-0.031714	0.958968
	C832	C	0.732851	-0.035429	0.939761
	O833	O	0.767785	-0.025316	0.957965
	H834	H	0.622762	0.008549	0.950330
	H835	H	0.762729	0.002526	0.968596
	H836	H	0.695860	-0.053463	0.829843
	C837	C	0.615306	0.211217	0.365768
	C838	C	0.594737	0.190827	0.336809
	C839	C	0.616166	0.172522	0.306720
	C840	C	0.658448	0.172488	0.306814
	C841	C	0.679334	0.191114	0.337131
	C842	C	0.658250	0.211105	0.366075
	C843	C	0.550020	0.191051	0.345766
	C844	C	0.583427	0.229277	0.392122
	N845	N	0.544727	0.214375	0.379321
	O846	O	0.588091	0.252010	0.418582
	O847	O	0.522828	0.173737	0.329370
	C848	C	0.672702	0.153275	0.269971
	C849	C	0.601750	0.151469	0.271039
	N850	N	0.637167	0.141705	0.249506
	O851	O	0.567487	0.144067	0.261039
	O852	O	0.706694	0.148693	0.257804
	C853	C	0.689588	0.229143	0.393022
	C854	C	0.723791	0.191162	0.347054
	N855	N	0.728471	0.214198	0.380920
	O856	O	0.751071	0.173900	0.330694
	O857	O	0.684224	0.252175	0.419144
	C858	C	0.820531	-0.024101	0.836961
	C859	C	0.841496	-0.045135	0.865269
	C860	C	0.884450	-0.045325	0.865001
	C861	C	0.905061	-0.023907	0.836769
	C862	C	0.883750	-0.005985	0.806469
	C863	C	0.841468	-0.006367	0.806248
	C864	C	0.810118	-0.062812	0.892347
	C865	C	0.776005	-0.024592	0.846595
	N866	N	0.771274	-0.047729	0.880334
	O867	O	0.748699	-0.007535	0.830149
	O868	O	0.815421	-0.085744	0.918493
	C869	C	0.949785	-0.024515	0.845632
	C870	C	0.916241	-0.063198	0.891495
	N871	N	0.954977	-0.048174	0.878924
	O872	O	0.911495	-0.085936	0.917879
	O873	O	0.977055	-0.007188	0.829393
	C874	C	0.827340	0.013719	0.769840
	C875	C	0.898287	0.015379	0.771046
	N876	N	0.862950	0.025371	0.749538
	O877	O	0.932588	0.022843	0.761198
	O878	O	0.793379	0.018779	0.757796
	C879	C	0.804387	0.198048	0.459455
	C880	C	0.766913	0.201383	0.440203
	O881	O	0.731922	0.192049	0.458644
	C882	C	0.765792	0.215018	0.402095
	C883	C	0.803038	0.224441	0.383714
	O884	O	0.802449	0.242879	0.349234
	C885	C	0.840828	0.214104	0.400537
	C886	C	0.840709	0.199621	0.438186
	O887	O	0.875957	0.187795	0.455081
	H888	H	0.803899	0.219909	0.330380
	H889	H	0.876887	0.157588	0.450858
	H890	H	0.736610	0.164272	0.469485
	C891	C	0.882402	0.066958	0.651625
	C892	C	0.891871	0.029687	0.633231
	O893	O	0.910049	0.030254	0.598602
	C894	C	0.881959	-0.008111	0.650238
	C895	C	0.867218	-0.007881	0.687823
	O896	O	0.855318	-0.043098	0.704712
	C897	C	0.865547	0.028475	0.709084
	C898	C	0.869283	0.065939	0.689913
	O899	O	0.859285	0.100915	0.708157
	H900	H	0.825139	-0.044046	0.700385
	H901	H	0.831473	0.095929	0.718834
	H902	H	0.886945	0.028789	0.579934
	C903	C	0.857286	0.153419	0.587253
	C904	C	0.878483	0.174454	0.615458
	C905	C	0.878640	0.217408	0.615174
	C906	C	0.857076	0.237969	0.587007
	C907	C	0.838921	0.216585	0.556822
	C908	C	0.838857	0.174300	0.556877
	C909	C	0.896456	0.143131	0.642403
	C910	C	0.857919	0.108907	0.596869
	N911	N	0.881340	0.104251	0.630461
	O912	O	0.840772	0.081553	0.580520
	O913	O	0.919601	0.148489	0.668406
	C914	C	0.857925	0.282739	0.595744
	C915	C	0.896734	0.249246	0.641547
	N916	N	0.881741	0.287978	0.628968
	O917	O	0.919592	0.244531	0.667866
	O918	O	0.840655	0.310014	0.579473
	C919	C	0.819218	0.160054	0.520254
	C920	C	0.817471	0.231009	0.521398
	N921	N	0.807522	0.195597	0.499907
	O922	O	0.809921	0.265277	0.511538
	O923	O	0.814445	0.126057	0.508134
	C924	C	0.661423	0.283512	0.056657
	C925	C	0.660541	0.325783	0.056209
	C926	C	0.642220	0.346753	0.086655
	C927	C	0.622048	0.325754	0.115484
	C928	C	0.621390	0.282808	0.114890
	C929	C	0.642420	0.262167	0.086360
	C930	C	0.680568	0.339885	0.019751
	C931	C	0.682326	0.268930	0.020953
	N932	N	0.692251	0.304257	-0.000574
	O933	O	0.689567	0.234608	0.010955
	O934	O	0.685574	0.373839	0.007698
	C935	C	0.603978	0.357185	0.142360
	C936	C	0.642166	0.391237	0.096551
	N937	N	0.619037	0.396020	0.130332
	O938	O	0.659493	0.418458	0.080242
	O939	O	0.580851	0.351923	0.168390
	C940	C	0.642359	0.217506	0.095497
	C941	C	0.603608	0.251023	0.141431
	N942	N	0.618755	0.212303	0.128852
	O943	O	0.580843	0.255764	0.167838
	O944	O	0.659966	0.190295	0.079363
	C945	C	0.634705	0.472012	0.209037
	C946	C	0.631623	0.434549	0.189661
	O947	O	0.641123	0.399582	0.208040
	C948	C	0.618119	0.433387	0.151499
	C949	C	0.608733	0.470615	0.133106
	O950	O	0.590594	0.469987	0.098469
	C951	C	0.618843	0.508436	0.150065
	C952	C	0.632600	0.508408	0.187965
	O953	O	0.644751	0.543599	0.204840
	H954	H	0.613720	0.471421	0.079812
	H955	H	0.674946	0.544295	0.200563
	H956	H	0.668990	0.404298	0.218701
	C957	C	0.733934	0.284668	0.901494
	C958	C	0.696692	0.275113	0.883148
	O959	O	0.697310	0.256824	0.848549
	C960	C	0.658861	0.285030	0.900175
	C961	C	0.659030	0.299845	0.937750
	O962	O	0.623780	0.311713	0.954673
	C963	C	0.695368	0.301619	0.958968
	C964	C	0.732851	0.297905	0.939761
	O965	O	0.767785	0.308018	0.957965
	H966	H	0.622762	0.341883	0.950330
	H967	H	0.762729	0.335859	0.968596
	H968	H	0.695860	0.279871	0.829843
	C969	C	0.615306	0.544550	0.365768
	C970	C	0.594737	0.524161	0.336809
	C971	C	0.616166	0.505855	0.306720
	C972	C	0.658448	0.505821	0.306814
	C973	C	0.679334	0.524448	0.337131
	C974	C	0.658250	0.544439	0.366075
	C975	C	0.550020	0.524384	0.345766
	C976	C	0.583427	0.562610	0.392122
	N977	N	0.544727	0.547708	0.379321
	O978	O	0.588091	0.585344	0.418582
	O979	O	0.522828	0.507070	0.329370
	C980	C	0.672702	0.486608	0.269971
	C981	C	0.601750	0.484802	0.271039
	N982	N	0.637167	0.475038	0.249506
	O983	O	0.567487	0.477400	0.261039
	O984	O	0.706694	0.482026	0.257804
	C985	C	0.689588	0.562476	0.393022
	C986	C	0.723791	0.524495	0.347054
	N987	N	0.728471	0.547531	0.380920
	O988	O	0.751071	0.507234	0.330694
	O989	O	0.684224	0.585509	0.419144
	C990	C	0.820531	0.309233	0.836961
	C991	C	0.841496	0.288198	0.865269
	C992	C	0.884450	0.288008	0.865001
	C993	C	0.905061	0.309426	0.836769
	C994	C	0.883750	0.327348	0.806469
	C995	C	0.841468	0.326966	0.806248
	C996	C	0.810118	0.270521	0.892347
	C997	C	0.776005	0.308741	0.846595
	N998	N	0.771274	0.285605	0.880334
	O999	O	0.748699	0.325798	0.830149
	O1000	O	0.815421	0.247589	0.918493
	C1001	C	0.949785	0.308818	0.845632
	C1002	C	0.916241	0.270135	0.891495
	N1003	N	0.954977	0.285159	0.878924
	O1004	O	0.911495	0.247397	0.917879
	O1005	O	0.977055	0.326146	0.829393
	C1006	C	0.827340	0.347052	0.769840
	C1007	C	0.898287	0.348712	0.771046
	N1008	N	0.862950	0.358704	0.749538
	O1009	O	0.932588	0.356177	0.761198
	O1010	O	0.793379	0.352112	0.757796
	C1011	C	0.804387	0.531382	0.459455
	C1012	C	0.766913	0.534716	0.440203
	O1013	O	0.731922	0.525382	0.458644
	C1014	C	0.765792	0.548351	0.402095
	C1015	C	0.803038	0.557774	0.383714
	O1016	O	0.802449	0.576213	0.349234
	C1017	C	0.840828	0.547437	0.400537
	C1018	C	0.840709	0.532954	0.438186
	O1019	O	0.875957	0.521128	0.455081
	H1020	H	0.803899	0.553243	0.330380
	H1021	H	0.876887	0.490922	0.450858
	H1022	H	0.736610	0.497606	0.469485
	C1023	C	0.882402	0.400291	0.651625
	C1024	C	0.891871	0.363021	0.633231
	O1025	O	0.910049	0.363587	0.598602
	C1026	C	0.881959	0.325223	0.650238
	C1027	C	0.867218	0.325453	0.687823
	O1028	O	0.855318	0.290235	0.704712
	C1029	C	0.865547	0.361808	0.709084
	C1030	C	0.869283	0.399272	0.689913
	O1031	O	0.859285	0.434248	0.708157
	H1032	H	0.825139	0.289287	0.700385
	H1033	H	0.831473	0.429262	0.718834
	H1034	H	0.886945	0.362123	0.579934
	C1035	C	0.857286	0.486752	0.587253
	C1036	C	0.878483	0.507787	0.615458
	C1037	C	0.878640	0.550741	0.615174
	C1038	C	0.857076	0.571303	0.587007
	C1039	C	0.838921	0.549918	0.556822
	C1040	C	0.838857	0.507633	0.556877
	C1041	C	0.896456	0.476464	0.642403
	C1042	C	0.857919	0.442240	0.596869
	N1043	N	0.881340	0.437585	0.630461
	O1044	O	0.840772	0.414887	0.580520
	O1045	O	0.919601	0.481822	0.668406
	C1046	C	0.857925	0.616072	0.595744
	C1047	C	0.896734	0.582579	0.641547
	N1048	N	0.881741	0.621311	0.628968
	O1049	O	0.919592	0.577864	0.667866
	O1050	O	0.840655	0.643347	0.579473
	C1051	C	0.819218	0.493387	0.520254
	C1052	C	0.817471	0.564343	0.521398
	N1053	N	0.807522	0.528930	0.499907
	O1054	O	0.809921	0.598610	0.511538
	O1055	O	0.814445	0.459390	0.508134
	C1056	C	0.661423	0.616845	0.056657
	C1057	C	0.660541	0.659116	0.056209
	C1058	C	0.642220	0.680086	0.086655
	C1059	C	0.622048	0.659087	0.115484
	C1060	C	0.621390	0.616142	0.114890
	C1061	C	0.642420	0.595500	0.086360
	C1062	C	0.680568	0.673219	0.019751
	C1063	C	0.682326	0.602263	0.020953
	N1064	N	0.692251	0.637590	-0.000574
	O1065	O	0.689567	0.567941	0.010955
	O1066	O	0.685574	0.707173	0.007698
	C1067	C	0.603978	0.690519	0.142360
	C1068	C	0.642166	0.724570	0.096551
	N1069	N	0.619037	0.729354	0.130332
	O1070	O	0.659493	0.751792	0.080242
	O1071	O	0.580851	0.685257	0.168390
	C1072	C	0.642359	0.550840	0.095497
	C1073	C	0.603608	0.584357	0.141431
	N1074	N	0.618755	0.545637	0.128852
	O1075	O	0.580843	0.589097	0.167838
	O1076	O	0.659966	0.523628	0.079363
	C1077	C	0.634705	0.805345	0.209037
	C1078	C	0.631623	0.767882	0.189661
	O1079	O	0.641123	0.732915	0.208040
	C1080	C	0.618119	0.766721	0.151499
	C1081	C	0.608733	0.803949	0.133106
	O1082	O	0.590594	0.803320	0.098469
	C1083	C	0.618843	0.841770	0.150065
	C1084	C	0.632600	0.841742	0.187965
	O1085	O	0.644751	0.876932	0.204840
	H1086	H	0.613720	0.804755	0.079812
	H1087	H	0.674946	0.877628	0.200563
	H1088	H	0.668990	0.737631	0.218701
	C1089	C	0.733934	0.618001	0.901494
	C1090	C	0.696692	0.608446	0.883148
	O1091	O	0.697310	0.590157	0.848549
	C1092	C	0.658861	0.618363	0.900175
	C1093	C	0.659030	0.633178	0.937750
	O1094	O	0.623780	0.645047	0.954673
	C1095	C	0.695368	0.634953	0.958968
	C1096	C	0.732851	0.631238	0.939761
	O1097	O	0.767785	0.641351	0.957965
	H1098	H	0.622762	0.675216	0.950330
	H1099	H	0.762729	0.669192	0.968596
	H1100	H	0.695860	0.613204	0.829843
	C1101	C	0.615306	0.877883	0.365768
	C1102	C	0.594737	0.857494	0.336809
	C1103	C	0.616166	0.839188	0.306720
	C1104	C	0.658448	0.839154	0.306814
	C1105	C	0.679334	0.857781	0.337131
	C1106	C	0.658250	0.877772	0.366075
	C1107	C	0.550020	0.857717	0.345766
	C1108	C	0.583427	0.895944	0.392122
	N1109	N	0.544727	0.881042	0.379321
	O1110	O	0.588091	0.918677	0.418582
	O1111	O	0.522828	0.840403	0.329370
	C1112	C	0.672702	0.819941	0.269971
	C1113	C	0.601750	0.818136	0.271039
	N1114	N	0.637167	0.808371	0.249506
	O1115	O	0.567487	0.810734	0.261039
	O1116	O	0.706694	0.815360	0.257804
	C1117	C	0.689588	0.895810	0.393022
	C1118	C	0.723791	0.857829	0.347054
	N1119	N	0.728471	0.880864	0.380920
	O1120	O	0.751071	0.840567	0.330694
	O1121	O	0.684224	0.918842	0.419144
	C1122	C	0.820531	0.642566	0.836961
	C1123	C	0.841496	0.621532	0.865269
	C1124	C	0.884450	0.621342	0.865001
	C1125	C	0.905061	0.642760	0.836769
	C1126	C	0.883750	0.660682	0.806469
	C1127	C	0.841468	0.660299	0.806248
	C1128	C	0.810118	0.603854	0.892347
	C1129	C	0.776005	0.642074	0.846595
	N1130	N	0.771274	0.618938	0.880334
	O1131	O	0.748699	0.659132	0.830149
	O1132	O	0.815421	0.580923	0.918493
	C1133	C	0.949785	0.642152	0.845632
	C1134	C	0.916241	0.603469	0.891495
	N1135	N	0.954977	0.618493	0.878924
	O1136	O	0.911495	0.580730	0.917879
	O1137	O	0.977055	0.659479	0.829393
	C1138	C	0.827340	0.680386	0.769840
	C1139	C	0.898287	0.682045	0.771046
	N1140	N	0.862950	0.692037	0.749538
	O1141	O	0.932588	0.689510	0.761198
	O1142	O	0.793379	0.685445	0.757796
	C1143	C	0.804387	0.864715	0.459455
	C1144	C	0.766913	0.868049	0.440203
	O1145	O	0.731922	0.858716	0.458644
	C1146	C	0.765792	0.881685	0.402095
	C1147	C	0.803038	0.891107	0.383714
	O1148	O	0.802449	0.909546	0.349234
	C1149	C	0.840828	0.880770	0.400537
	C1150	C	0.840709	0.866288	0.438186
	O1151	O	0.875957	0.854462	0.455081
	H1152	H	0.803899	0.886576	0.330380
	H1153	H	0.876887	0.824255	0.450858
	H1154	H	0.736610	0.830939	0.469485
	C1155	C	0.882402	0.733624	0.651625
	C1156	C	0.891871	0.696354	0.633231
	O1157	O	0.910049	0.696921	0.598602
	C1158	C	0.881959	0.658556	0.650238
	C1159	C	0.867218	0.658786	0.687823
	O1160	O	0.855318	0.623569	0.704712
	C1161	C	0.865547	0.695142	0.709084
	C1162	C	0.869283	0.732605	0.689913
	O1163	O	0.859285	0.767582	0.708157
	H1164	H	0.825139	0.622621	0.700385
	H1165	H	0.831473	0.762595	0.718834
	H1166	H	0.886945	0.695456	0.579934
	C1167	C	0.857286	0.820086	0.587253
	C1168	C	0.878483	0.841120	0.615458
	C1169	C	0.878640	0.884075	0.615174
	C1170	C	0.857076	0.904636	0.587007
	C1171	C	0.838921	0.883252	0.556822
	C1172	C	0.838857	0.840966	0.556877
	C1173	C	0.896456	0.809797	0.642403
	C1174	C	0.857919	0.775574	0.596869
	N1175	N	0.881340	0.770918	0.630461
	O1176	O	0.840772	0.748220	0.580520
	O1177	O	0.919601	0.815156	0.668406
	C1178	C	0.857925	0.949405	0.595744
	C1179	C	0.896734	0.915913	0.641547
	N1180	N	0.881741	0.954644	0.628968
	O1181	O	0.919592	0.911198	0.667866
	O1182	O	0.840655	0.976681	0.579473
	C1183	C	0.819218	0.826721	0.520254
	C1184	C	0.817471	0.897676	0.521398
	N1185	N	0.807522	0.862263	0.499907
	O1186	O	0.809921	0.931943	0.511538
	O1187	O	0.814445	0.792723	0.508134
	N1188	N	0.170709	0.092484	0.140058
	N1189	N	0.145115	0.083636	0.158519
	N1190	N	0.963382	0.444507	0.382709
	N1191	N	0.976809	0.455538	0.409515
	N1192	N	0.108941	0.979856	0.130227
	N1193	N	0.076220	0.983275	0.124112
	N1194	N	0.908438	0.375840	0.028463
	N1195	N	0.894551	0.369582	0.000572
	N1196	N	0.839049	0.353427	0.436206
	N1197	N	0.848652	0.385209	0.440693
	N1198	N	0.745115	0.971554	0.321753
	N1199	N	0.754739	0.948959	0.300377
	N1200	N	0.495054	0.247406	0.115910
	N1201	N	0.476085	0.222989	0.103793
	N1202	N	0.238547	0.739698	0.009145
	N1203	N	0.204998	0.739177	0.009088
	N1204	N	0.487386	0.444594	0.008145
	N1205	N	0.509542	0.469759	0.009116
	N1206	N	0.712084	0.685480	0.456896
	N1207	N	0.685032	0.676821	0.440264
	C1208	C	0.542049	0.802311	0.858095
	O1209	O	0.536793	0.767498	0.853494
	O1210	O	0.547304	0.837124	0.862696
	C1211	C	0.845580	0.927325	0.247138
	O1212	O	0.819624	0.943860	0.230620
	O1213	O	0.871537	0.910759	0.263684
	C1214	C	0.511163	0.384174	0.483330
	O1215	O	0.486435	0.394089	0.461411
	O1216	O	0.535892	0.374259	0.505278
	C1217	C	0.260804	0.550391	0.752301
	O1218	O	0.235144	0.570126	0.765990
	O1219	O	0.286464	0.530655	0.738584
	C1220	C	0.400191	0.293823	0.591496
	O1221	O	0.415532	0.262331	0.596954
	O1222	O	0.384849	0.325345	0.586009
	C1223	C	0.165716	0.269097	0.009716
	O1224	O	0.193229	0.291568	0.010917
	O1225	O	0.138234	0.246626	0.008516
	C1226	C	0.640582	0.203792	0.728353
	O1227	O	0.611373	0.210340	0.746243
	O1228	O	0.669791	0.197244	0.710464
	C1229	C	0.966020	0.107280	0.733411
	O1230	O	0.944674	0.122223	0.755987
	O1231	O	0.987396	0.092336	0.710835
	C1232	C	0.947215	0.781549	0.735926
	O1233	O	0.964766	0.762105	0.713493
	O1234	O	0.929664	0.800992	0.758388
	C1235	C	0.046164	0.632937	0.292747
	O1236	O	0.043595	0.654079	0.266227
	O1237	O	0.048732	0.611795	0.319267
	C1238	C	0.282215	0.320281	0.284060
	O1239	O	0.261420	0.345862	0.296491
	O1240	O	0.302978	0.294670	0.271657
	C1241	C	0.396865	0.423354	0.754930
	O1242	O	0.374855	0.404711	0.774248
	O1243	O	0.418875	0.441997	0.735583
	C1244	C	0.998925	0.525703	0.704319
	O1245	O	0.980609	0.542577	0.728010
	O1246	O	1.017242	0.508860	0.680629
	C1247	C	0.605162	0.624429	0.509164
	O1248	O	0.587961	0.598341	0.524910
	O1249	O	0.622394	0.650516	0.493418
	C1250	C	0.342331	0.101176	0.765304
	O1251	O	0.313674	0.101544	0.784965
	O1252	O	0.370958	0.100809	0.745671
	C1253	C	0.784330	0.279604	0.053240
	O1254	O	0.817700	0.273925	0.043209
	O1255	O	0.750930	0.285283	0.063270
	C1256	C	0.795071	0.078831	0.022319
	O1257	O	0.805430	0.054307	0.000314
	O1258	O	0.784712	0.103355	0.044352
	C1259	C	0.874199	0.546756	0.757302
	O1260	O	0.852506	0.538512	0.732182
	O1261	O	0.895892	0.554999	0.782422
	C1262	C	0.833859	0.593418	0.000057
	O1263	O	0.852471	0.614816	-0.019918
	O1264	O	0.815247	0.572052	0.020033
	C1265	C	0.515579	0.755102	0.365763
	O1266	O	0.550537	0.755858	0.359847
	O1267	O	0.480620	0.754346	0.371650
	C1268	C	0.828089	0.383049	0.116196
	O1269	O	0.828837	0.361273	0.089962
	O1270	O	0.827341	0.404825	0.142430
	C1271	C	0.006823	0.008791	0.609900
	O1272	O	0.002231	0.035635	0.588638
	O1273	O	0.011445	-0.018054	0.631161
	C1274	C	0.168781	0.765662	0.208129
	O1275	O	0.176125	0.795452	0.191469
	O1276	O	0.161467	0.735841	0.224819
	C1277	C	0.436138	0.692597	0.642592
	O1278	O	0.410924	0.680779	0.621988
	O1279	O	0.461351	0.704415	0.663225
	C1280	C	0.729577	0.322910	0.496819
	O1281	O	0.740605	0.328095	0.465669
	O1282	O	0.718580	0.317693	0.527997
	C1283	C	0.713757	0.734931	0.856694
	O1284	O	0.722758	0.757577	0.832546
	O1285	O	0.704756	0.712316	0.880814
	C1286	C	0.097261	0.748040	0.371249
	O1287	O	0.103279	0.774064	0.393168
	O1288	O	0.091244	0.721985	0.349331
	C1289	C	0.847034	0.263608	0.219360
	O1290	O	0.859301	0.258330	0.250081
	O1291	O	0.834768	0.268887	0.188611
	C1292	C	0.349463	0.080120	0.885729
	O1293	O	0.317962	0.073989	0.899903
	O1294	O	0.380994	0.086251	0.871526
	C1295	C	0.837043	0.062946	0.317867
	O1296	O	0.871295	0.071757	0.314695
	O1297	O	0.802822	0.054104	0.321039
	C1298	C	0.484275	0.191873	0.780107
	O1299	O	0.496371	0.159559	0.787966
	O1300	O	0.472178	0.224218	0.772277
	C1301	C	0.162114	0.221516	0.218875
	O1302	O	0.137297	0.218785	0.195270
	O1303	O	0.186961	0.224246	0.242451
	C1304	C	0.748381	0.398206	0.607842
	O1305	O	0.751291	0.368417	0.625646
	O1306	O	0.745471	0.428025	0.590010
	C1307	C	0.468609	0.092042	0.836004
	O1308	O	0.443239	0.098834	0.813685
	O1309	O	0.494010	0.085250	0.858323
	C1310	C	0.371699	0.787081	0.984950
	O1311	O	0.406686	0.792280	0.981864
	O1312	O	0.336712	0.781912	0.988036
	C1313	C	0.068943	0.787885	0.755502
	O1314	O	0.101212	0.779480	0.744014
	O1315	O	0.036644	0.796260	0.766961
	C1316	C	0.385943	0.307146	0.223790
	O1317	O	0.383852	0.342447	0.227105
	O1318	O	0.388003	0.271845	0.220446
	C1319	C	0.491473	0.433038	0.370078
	O1320	O	0.488150	0.412700	0.343044
	O1321	O	0.494796	0.453407	0.397112
	C1322	C	0.839988	0.827168	0.094534
	O1323	O	0.851494	0.857054	0.080160
	O1324	O	0.828481	0.797313	0.108909
	C1325	C	0.048903	0.072472	0.889130
	O1326	O	0.038834	0.043815	0.906305
	O1327	O	0.058972	0.101129	0.871955
	C1328	C	0.789314	0.818503	0.250253
	O1329	O	0.788204	0.853981	0.249110
	O1330	O	0.790393	0.782995	0.251367
	C1331	C	0.525268	0.374167	0.916278
	O1332	O	0.491227	0.384329	0.915392
	O1333	O	0.559278	0.364006	0.917164
	C1334	C	0.624484	0.788842	0.760388
	O1335	O	0.655832	0.794574	0.745700
	O1336	O	0.593167	0.783110	0.775106
	C1337	C	0.373523	0.734003	0.869640
	O1338	O	0.408569	0.734348	0.875127
	O1339	O	0.338476	0.733657	0.864182
	C1340	C	0.639627	0.103793	0.931367
	O1341	O	0.645054	0.068799	0.928481
	O1342	O	0.634199	0.138787	0.934254
	C1343	C	0.152530	0.420825	0.370992
	O1344	O	0.159252	0.447338	0.392225
	O1345	O	0.145809	0.394312	0.349759
	C1346	C	0.287285	0.409552	0.855637
	O1347	O	0.307822	0.435001	0.842720
	O1348	O	0.266717	0.384103	0.868583
	C1349	C	0.989367	0.435327	0.600926
	O1350	O	1.017776	0.414980	0.606928
	O1351	O	0.960927	0.455645	0.594925
	C1352	C	0.558135	0.072803	0.376651
	O1353	O	0.565279	0.041526	0.362333
	O1354	O	0.550991	0.104081	0.390968
	C1355	C	0.632450	0.131784	0.449323
	O1356	O	0.649477	0.135168	0.420403
	O1357	O	0.615423	0.128432	0.478272
	C1358	C	0.651128	0.807321	0.498848
	O1359	O	0.619024	0.794604	0.491046
	O1360	O	0.683233	0.820068	0.506649
	C1361	C	0.607319	0.692532	0.307550
	O1362	O	0.583326	0.666763	0.311894
	O1363	O	0.631343	0.718301	0.303207
	C1364	C	0.491860	0.031063	0.522967
	O1365	O	0.526696	0.033196	0.516852
	O1366	O	0.456994	0.028929	0.529111
	C1367	C	0.430731	0.018107	0.635848
	O1368	O	0.453623	0.006540	0.658767
	O1369	O	0.407839	0.029642	0.612900
	C1370	C	0.996197	0.258160	0.728925
	O1371	O	1.014052	0.252912	0.700662
	O1372	O	0.978341	0.263378	0.757188
	C1373	C	0.269363	0.172519	0.990723
	O1374	O	0.288352	0.159438	0.965460
	O1375	O	0.250374	0.185599	1.015985
	C1376	C	0.945738	0.768390	0.973833
	O1377	O	0.957871	0.757691	0.944256
	O1378	O	0.933605	0.779059	1.003382
	C1379	C	0.652208	0.523938	0.495447
	O1380	O	0.646742	0.498678	0.472642
	O1381	O	0.657674	0.549198	0.518280
	C1382	C	0.821845	0.123589	0.219989
	O1383	O	0.826227	0.090023	0.230077
	O1384	O	0.817432	0.157155	0.209930
	C1385	C	0.135288	0.028805	0.508535
	O1386	O	0.168106	0.029245	0.495876
	O1387	O	0.102440	0.028366	0.521224
	C1388	C	0.840587	0.705491	0.940255
	O1389	O	0.808421	0.702224	0.926509
	O1390	O	0.872784	0.708726	0.954001
	C1391	C	0.717057	0.306571	0.208530
	O1392	O	0.715291	0.271209	0.205586
	O1393	O	0.718853	0.341933	0.211473
	C1394	C	0.343860	0.823275	0.599898
	O1395	O	0.371254	0.810414	0.617273
	O1396	O	0.316467	0.836135	0.582551
	C1397	C	0.192409	0.319589	0.370278
	O1398	O	0.211765	0.307978	0.344615
	O1399	O	0.173053	0.331201	0.395912
	C1400	C	0.870477	0.866053	0.765132
	O1401	O	0.846791	0.839544	0.765361
	O1402	O	0.894132	0.892563	0.764875
	C1403	C	0.267128	0.220515	0.753273
	O1404	O	0.299243	0.206943	0.746900
	O1405	O	0.235013	0.234117	0.759674
	C1406	C	0.289257	0.182382	0.486045
	O1407	O	0.295788	0.177189	0.453781
	O1408	O	0.282726	0.187545	0.518309
	C1409	C	0.417456	0.180241	0.878156
	O1410	O	0.451131	0.180806	0.867554
	O1411	O	0.383782	0.179706	0.888758
	C1412	C	0.538824	0.173582	0.887987
	O1413	O	0.536928	0.197268	0.863353
	O1414	O	0.540720	0.149896	0.912592
	C1415	C	0.015742	0.794461	0.654023
	O1416	O	-0.008064	0.785548	0.630847
	O1417	O	0.039547	0.803375	0.677228
	C1418	C	0.687787	0.465803	0.004401
	O1419	O	0.656446	0.467676	-0.011117
	O1420	O	0.719127	0.463929	0.019918
	C1421	C	0.412690	0.431913	0.649194
	O1422	O	0.382082	0.415147	0.655481
	O1423	O	0.443267	0.448679	0.642907
	C1424	C	0.573683	0.353642	0.260712
	O1425	O	0.541445	0.366694	0.267599
	O1426	O	0.605890	0.340621	0.253825
	C1427	C	0.184668	0.637092	0.209215
	O1428	O	0.207312	0.634928	0.234678
	O1429	O	0.161993	0.639287	0.183753
	C1430	C	0.528326	0.945548	0.977063
	O1431	O	0.527680	0.976779	0.961316
	O1432	O	0.528941	0.914287	0.992837
	C1433	C	0.068344	0.341264	0.664740
	O1434	O	0.033849	0.339232	0.657081
	O1435	O	0.102839	0.343327	0.672427
	C1436	C	0.410254	0.788853	0.121626
	O1437	O	0.428630	0.781004	0.094163
	O1438	O	0.391908	0.796672	0.149088
	C1439	C	0.617012	0.247046	0.492846
	O1440	O	0.607450	0.276093	0.509793
	O1441	O	0.626575	0.217999	0.475900
	C1442	C	0.774632	0.820698	0.009431
	O1443	O	0.767519	0.853410	0.020661
	O1444	O	0.781714	0.788017	-0.001800
	C1445	C	0.874290	0.202909	0.731497
	O1446	O	0.850422	0.197086	0.707520
	O1447	O	0.898157	0.208763	0.755445
	C1448	C	0.147446	0.176101	0.071358
	O1449	O	0.150856	0.145066	0.055469
	O1450	O	0.144005	0.207136	0.087247
	C1451	C	0.953560	0.602126	0.243737
	O1452	O	0.970430	0.617515	0.218332
	O1453	O	0.936690	0.586737	0.269142
	C1454	C	0.418221	0.423836	0.887186
	O1455	O	0.439313	0.443091	0.867497
	O1456	O	0.397099	0.404581	0.906876
	C1457	C	0.935166	0.619645	0.523682
	O1458	O	0.943126	0.592002	0.543086
	O1459	O	0.927176	0.647319	0.504277
	C1460	C	0.431562	0.539029	0.005801
	O1461	O	0.431824	0.562456	0.030749
	O1462	O	0.431300	0.515572	-0.019175
	C1463	C	0.292749	0.451732	0.970518
	O1464	O	0.289094	0.465953	1.000753
	O1465	O	0.296405	0.437511	0.940283
	C1466	C	0.217448	0.130043	0.823859
	O1467	O	0.205302	0.097113	0.828974
	O1468	O	0.229563	0.163005	0.818744
	C1469	C	0.225677	0.928968	0.005687
	O1470	O	0.246865	0.900657	0.008916
	O1471	O	0.204489	0.957279	0.002458
	C1472	C	0.264168	0.065773	0.441979
	O1473	O	0.295607	0.049830	0.446151
	O1474	O	0.232729	0.081715	0.437778
	C1475	C	0.828497	0.351821	0.309551
	O1476	O	0.856497	0.368342	0.322982
	O1477	O	0.800497	0.335330	0.296119
	C1478	C	0.735192	0.977592	0.639563
	O1479	O	0.753762	0.982258	0.667512
	O1480	O	0.716652	0.972895	0.611586
	C1481	C	0.473621	0.018545	0.113338
	O1482	O	0.500047	0.006637	0.094134
	O1483	O	0.447166	0.030452	0.132571
	C1484	C	0.290066	0.442161	0.742585
	O1485	O	0.263306	0.443818	0.764361
	O1486	O	0.316795	0.440474	0.720809
	C1487	C	0.512919	0.788914	0.023548
	O1488	O	0.503328	0.822019	0.031664
	O1489	O	0.522541	0.755810	0.015432
	C1490	C	0.216233	0.533418	0.978749
	O1491	O	0.213490	0.504429	0.959687
	O1492	O	0.219005	0.562407	0.997810
	C1493	C	0.765446	0.554139	0.232506
	O1494	O	0.739157	0.559248	0.210701
	O1495	O	0.791704	0.549030	0.254339
	C1496	C	0.816240	0.402516	0.917078
	O1497	O	0.843824	0.410352	0.897474
	O1498	O	0.788657	0.394679	0.936654
	C1499	C	0.639499	0.439318	0.784079
	O1500	O	0.609127	0.448372	0.799139
	O1501	O	0.669871	0.430264	0.769047
	C1502	C	0.379586	0.635100	0.735926
	O1503	O	0.367186	0.616957	0.761960
	O1504	O	0.391956	0.653273	0.709864
	C1505	C	0.973382	0.465930	0.496790
	O1506	O	1.006535	0.453382	0.498791
	O1507	O	0.940198	0.478478	0.494790
	C1508	C	0.388428	0.968749	0.485331
	O1509	O	0.370183	0.949313	0.507249
	O1510	O	0.406674	0.988153	0.463440
	C1511	C	0.709276	0.977303	0.200728
	O1512	O	0.704265	0.942429	0.196384
	O1513	O	0.714286	1.012178	0.205043
	C1514	C	0.729794	0.123824	0.644278
	O1515	O	0.716083	0.144818	0.620816
	O1516	O	0.743506	0.102830	0.667740
	C1517	C	0.885836	0.230375	0.990208
	O1518	O	0.898284	0.261342	1.001668
	O1519	O	0.873389	0.199439	0.978720
	C1520	C	0.350445	0.112071	0.547601
	O1521	O	0.318760	0.109553	0.562461
	O1522	O	0.382100	0.114588	0.532741
	C1523	C	0.244411	0.502445	0.845721
	O1524	O	0.265311	0.531095	0.843606
	O1525	O	0.223541	0.473795	0.847807
	C1526	C	0.963210	0.115616	0.504878
	O1527	O	0.946995	0.116060	0.475357
	O1528	O	0.979394	0.115203	0.534398
	C1529	C	0.944444	0.890988	0.501591
	O1530	O	0.935157	0.921959	0.515394
	O1531	O	0.953730	0.860018	0.487817
	C1532	C	0.161407	0.858929	0.731039
	O1533	O	0.162381	0.842781	0.760560
	O1534	O	0.160463	0.875107	0.701547
	C1535	C	0.312172	0.635197	0.269657
	O1536	O	0.281555	0.643119	0.284803
	O1537	O	0.342758	0.627245	0.254482
	C1538	C	0.050730	0.635684	0.170064
	O1539	O	0.055970	0.602364	0.180438
	O1540	O	0.045491	0.669035	0.159719
	C1541	C	0.524136	0.735627	0.224933
	O1542	O	0.541123	0.714416	0.246309
	O1543	O	0.507179	0.756839	0.203557
	C1544	C	0.125527	0.197702	0.768619
	O1545	O	0.149921	0.181384	0.787280
	O1546	O	0.101101	0.214020	0.749986
	C1547	C	0.821537	0.533549	0.102965
	O1548	O	0.839424	0.505429	0.091419
	O1549	O	0.803650	0.561669	0.114538
	C1550	C	0.165662	0.423079	0.167835
	O1551	O	0.189042	0.449770	0.166006
	O1552	O	0.142282	0.396388	0.169664
	C1553	C	0.378908	0.389985	0.342729
	O1554	O	0.401397	0.396116	0.367763
	O1555	O	0.356449	0.383854	0.317667
	C1556	C	0.890028	0.878064	0.987093
	O1557	O	0.898097	0.909188	1.001239
	O1558	O	0.881958	0.846909	0.972976
	C1559	C	0.667853	0.876888	0.607442
	O1560	O	0.637585	0.875117	0.590181
	O1561	O	0.698151	0.878660	0.624703
	C1562	C	0.924350	0.301316	0.508621
	O1563	O	0.920514	0.336282	0.513394
	O1564	O	0.928156	0.266349	0.503849
	C1565	C	0.292780	0.547656	0.491503
	O1566	O	0.285971	0.570776	0.515908
	O1567	O	0.299558	0.524536	0.467070
	C1568	C	0.968757	0.142448	0.965231
	O1569	O	0.988694	0.134662	0.938740
	O1570	O	0.948820	0.150235	0.991751
	C1571	C	0.387194	0.747001	0.392540
	O1572	O	0.369819	0.727864	0.369763
	O1573	O	0.404569	0.766139	0.415316
	C1574	C	0.061958	0.145488	0.579350
	O1575	O	0.056374	0.168241	0.604356
	O1576	O	0.067512	0.122765	0.554374
	C1577	C	0.520153	0.070264	0.964660
	O1578	O	0.554403	0.072481	0.973290
	O1579	O	0.485935	0.068046	0.956030
	C1580	C	0.017084	0.478673	0.012974
	O1581	O	-0.016220	0.487661	0.005001
	O1582	O	0.050356	0.469716	0.020976
	C1583	C	0.538421	0.528059	0.722666
	O1584	O	0.558278	0.532907	0.749815
	O1585	O	0.518565	0.523210	0.695546
	C1586	C	0.938346	0.426842	0.890644
	O1587	O	0.944589	0.403277	0.914764
	O1588	O	0.932103	0.450406	0.866554
	C1589	C	0.507177	0.675205	0.072530
	O1590	O	0.540240	0.663045	0.068186
	O1591	O	0.474084	0.687365	0.076873
	C1592	C	0.040048	0.451465	0.819629
	O1593	O	0.049635	0.464123	0.789966
	O1594	O	0.030461	0.438838	0.849321
	C1595	C	0.644172	0.921262	0.735440
	O1596	O	0.633693	0.928780	0.766361
	O1597	O	0.654683	0.913714	0.704520
	C1598	C	0.503200	0.880328	0.105508
	O1599	O	0.473323	0.868136	0.119425
	O1600	O	0.533046	0.892490	0.091591
	C1601	C	0.309578	0.895251	0.741327
	O1602	O	0.334993	0.889767	0.718723
	O1603	O	0.284133	0.900735	0.763932
	C1604	C	0.132066	0.687412	0.517766
	O1605	O	0.160018	0.691727	0.497705
	O1606	O	0.104083	0.683127	0.537856
	C1607	C	0.058571	0.700717	0.608699
	O1608	O	0.058839	0.736069	0.605213
	O1609	O	0.058303	0.665396	0.612186
	C1610	C	0.773084	0.181070	0.978148
	O1611	O	0.781858	0.212255	0.991780
	O1612	O	0.764280	0.149855	0.964546
	C1613	C	0.984403	0.190029	0.814543
	O1614	O	1.006146	0.178634	0.790538
	O1615	O	0.962659	0.201393	0.838548
	C1616	C	0.718809	0.634204	0.730611
	O1617	O	0.747986	0.613967	0.729096
	O1618	O	0.689632	0.654410	0.732154
	C1619	C	0.322437	0.314876	0.488760
	O1620	O	0.343587	0.338118	0.473299
	O1621	O	0.301286	0.291635	0.504220
	C1622	C	0.745813	0.848607	0.845092
	O1623	O	0.714039	0.837113	0.855323
	O1624	O	0.777586	0.860101	0.834833
	C1625	C	0.557345	0.254311	0.009888
	O1626	O	0.539678	0.283932	0.001972
	O1627	O	0.575012	0.224660	0.017775
	C1628	C	0.669807	0.405543	0.895531
	O1629	O	0.657439	0.384673	0.919736
	O1630	O	0.682207	0.426414	0.871326
	C1631	C	0.398592	0.147256	0.124769
	O1632	O	0.382235	0.165141	0.149060
	O1633	O	0.414950	0.129371	0.100478
	C1634	C	0.681445	0.230577	0.610700
	O1635	O	0.712080	0.235042	0.627018
	O1636	O	0.650841	0.226144	0.594382
	C1637	C	0.871180	0.044747	0.914621
	O1638	O	0.836072	0.045473	0.909448
	O1639	O	0.906258	0.044020	0.919822
	C1640	C	0.599761	0.996996	0.460783
	O1641	O	0.597316	1.015748	0.432720
	O1642	O	0.602236	0.978244	0.488846
	C1643	C	0.069288	0.800900	0.112452
	O1644	O	0.084299	0.789897	0.084161
	O1645	O	0.054278	0.811904	0.140744
	C1646	C	0.758809	0.876495	0.160291
	O1647	O	0.790000	0.889612	0.150260
	O1648	O	0.727587	0.863378	0.170322
	C1649	C	0.898412	0.024907	0.462440
	O1650	O	0.906292	0.007904	0.434234
	O1651	O	0.890564	0.041910	0.490675
	C1652	C	0.637865	0.331120	0.403085
	O1653	O	0.649117	0.347999	0.430348
	O1654	O	0.626613	0.314271	0.375822
	C1655	C	0.704871	0.012812	0.754244
	O1656	O	0.710974	-0.019809	0.742299
	O1657	O	0.698768	0.045402	0.766190
	C1658	C	0.795007	0.942327	0.052525
	O1659	O	0.829446	0.937908	0.045410
	O1660	O	0.760598	0.946746	0.059613
	C1661	C	0.400629	0.476014	0.113252
	O1662	O	0.388679	0.484938	0.143373
	O1663	O	0.412547	0.467089	0.083132
	C1664	C	0.741165	0.084290	0.831460
	O1665	O	0.717131	0.074254	0.854065
	O1666	O	0.765167	0.094296	0.808884
	C1667	C	0.585309	0.507956	0.963888
	O1668	O	0.578495	0.476129	0.950543
	O1669	O	0.592123	0.539783	0.977234
	C1670	C	0.394057	0.931232	0.122683
	O1671	O	0.371161	0.911239	0.139858
	O1672	O	0.416954	0.951195	0.105508
	C1673	C	0.006581	0.012099	0.493932
	O1674	O	-0.008266	0.039533	0.478100
	O1675	O	0.021429	-0.015335	0.509764
	C1676	C	0.852099	0.678416	0.246480
	O1677	O	0.876519	0.703739	0.251110
	O1678	O	0.827711	0.653062	0.241822
	C1679	C	0.238385	0.000383	0.323268
	O1680	O	0.244119	-0.034096	0.317238
	O1681	O	0.232651	0.034862	0.329326
	C1682	C	0.447556	0.849815	0.716922
	O1683	O	0.444279	0.825454	0.740870
	O1684	O	0.450802	0.874145	0.692974
	C1685	C	0.330853	0.505744	0.645278
	O1686	O	0.348476	0.502697	0.673913
	O1687	O	0.313199	0.508791	0.616644
	C1688	C	0.674075	0.318638	0.721237
	O1689	O	0.670220	0.288451	0.738355
	O1690	O	0.677899	0.348795	0.704119
	C1691	C	0.026404	0.736205	0.868525
	O1692	O	0.028423	0.712611	0.893245
	O1693	O	0.024416	0.759799	0.843835
	C1694	C	0.793479	0.528472	0.673656
	O1695	O	0.782953	0.497758	0.687087
	O1696	O	0.804006	0.559185	0.660224
	C1697	C	0.131471	0.515318	0.699147
	O1698	O	0.122459	0.531219	0.727639
	O1699	O	0.140513	0.499416	0.670684
	C1700	C	0.503230	0.219233	0.227534
	O1701	O	0.489712	0.205965	0.199442
	O1702	O	0.516748	0.232502	0.255625
	C1703	C	0.148721	0.057259	0.400456
	O1704	O	0.126307	0.084176	0.406143
	O1705	O	0.171136	0.030372	0.394740
	C1706	C	0.718678	0.949562	0.509564
	O1707	O	0.718430	0.980762	0.493704
	O1708	O	0.718956	0.918393	0.525425
	C1709	C	0.526867	0.921646	0.256768
	O1710	O	0.497426	0.919138	0.238336
	O1711	O	0.556307	0.924155	0.275201
	C1712	C	0.091785	0.911002	0.634533
	O1713	O	0.111733	0.935363	0.649965
	O1714	O	0.071869	0.886672	0.619073
	C1715	C	0.671644	0.369285	0.319153
	O1716	O	0.686407	0.337198	0.315609
	O1717	O	0.656851	0.401403	0.322696
	C1718	C	0.963403	0.709240	0.303835
	O1719	O	0.954138	0.675072	0.300720
	O1720	O	0.972669	0.743378	0.306950
	C1721	C	0.778424	0.732525	0.394540
	O1722	O	0.760437	0.708894	0.376308
	O1723	O	0.796412	0.756156	0.412772
	C1724	C	0.507244	0.473966	0.820087
	O1725	O	0.504293	0.505062	0.835947
	O1726	O	0.510225	0.442870	0.804226
	C1727	C	0.043811	0.032100	0.755616
	O1728	O	0.043186	0.061181	0.774734
	O1729	O	0.044405	0.003050	0.736498
	C1730	C	0.771944	0.429834	0.807598
	O1731	O	0.783859	0.435449	0.776792
	O1732	O	0.760059	0.424219	0.838405
	C1733	C	0.033519	0.313202	0.553659
	O1734	O	0.048913	0.295057	0.578264
	O1735	O	0.018126	0.331378	0.529054
	C1736	C	0.179699	0.396018	0.031321
	O1737	O	0.212265	0.409943	0.028663
	O1738	O	0.147132	0.382094	0.033979
	C1739	C	0.128361	0.476647	0.890016
	O1740	O	0.126431	0.451796	0.913621
	O1741	O	0.130291	0.501528	0.866439
	C1742	C	0.975314	0.984001	0.274772
	O1743	O	0.948225	0.965255	0.287175
	O1744	O	1.002404	1.002747	0.262341
	C1745	C	0.732848	0.153557	0.140744
	O1746	O	0.728583	0.188493	0.145402
	O1747	O	0.737113	0.118621	0.136114
	C1748	C	0.753218	0.008020	0.411115
	O1749	O	0.774255	-0.020453	0.408257
	O1750	O	0.732181	0.036525	0.413973
	C1751	C	0.870180	0.167274	0.886386
	O1752	O	0.841163	0.180445	0.871755
	O1753	O	0.899228	0.154133	0.901018
