data_Molecule from CHK

_cell_length_a		30.326964
_cell_length_b		30.326964
_cell_length_c		52.512311
_cell_angle_alpha	90.000000
_cell_angle_beta	90.000000
_cell_angle_gamma	90.000000
_symmetry_space_group_name_H-M	'P 1'
_symmetry_Int_Tables_number		1

loop_
	_symmetry_equiv_pos_as_xyz
	x,y,z

loop_
	_atom_site_label
	_atom_site_type_symbol
	_atom_site_fract_x
	_atom_site_fract_y
	_atom_site_fract_z
	C0	C	-0.000000	0.000000	0.015614
	C1	C	-0.000000	-0.039576	0.029493
	C2	C	-0.000000	-0.040660	0.056244
	C3	C	-0.000000	0.000000	0.069095
	C4	C	-0.000000	0.040660	0.056244
	C5	C	-0.000000	0.039576	0.029493
	H6	H	-0.000000	0.000000	0.089761
	H7	H	-0.000000	0.070474	0.019105
	H8	H	-0.000000	-0.070474	0.019105
	O9	O	-0.000000	0.125000	0.058292
	O10	O	0.000000	0.085929	0.097445
	O11	O	-0.000000	0.164071	0.097445
	B12	B	-0.000000	0.085015	0.071083
	B13	B	0.000000	0.125000	0.111047
	B14	B	-0.000000	0.164985	0.071083
	O15	O	0.039071	0.000000	0.472445
	O16	O	0.000000	0.000000	0.433292
	O17	O	-0.039071	-0.000000	0.472445
	B18	B	0.039985	0.000000	0.446083
	B19	B	-0.039985	0.000000	0.446083
	B20	B	-0.000000	-0.000000	0.486047
	C21	C	-0.000000	0.125000	0.140614
	C22	C	0.039576	0.125000	0.154493
	C23	C	0.040660	0.125000	0.181244
	C24	C	-0.000000	0.125000	0.194095
	C25	C	-0.040660	0.125000	0.181244
	C26	C	-0.039576	0.125000	0.154493
	H27	H	-0.000000	0.125000	0.214761
	H28	H	-0.070474	0.125000	0.144105
	H29	H	0.070474	0.125000	0.144105
	C30	C	0.125000	0.000000	0.390614
	C31	C	0.085424	0.000000	0.404493
	C32	C	0.084340	0.000000	0.431244
	C33	C	0.125000	0.000000	0.444095
	C34	C	0.165660	0.000000	0.431244
	C35	C	0.164576	0.000000	0.404493
	H36	H	0.125000	0.000000	0.464761
	H37	H	0.195474	0.000000	0.394105
	H38	H	0.054526	0.000000	0.394105
	O39	O	0.125000	0.125000	0.183292
	O40	O	0.164071	0.125000	0.222445
	O41	O	0.085929	0.125000	0.222445
	B42	B	0.164985	0.125000	0.196083
	B43	B	0.125000	0.125000	0.236047
	B44	B	0.085015	0.125000	0.196083
	O45	O	0.125000	-0.039071	0.347445
	O46	O	0.125000	-0.000000	0.308292
	O47	O	0.125000	0.039071	0.347445
	B48	B	0.125000	-0.039985	0.321083
	B49	B	0.125000	0.039985	0.321083
	B50	B	0.125000	0.000000	0.361047
	C51	C	0.125000	0.125000	0.265614
	C52	C	0.125000	0.164576	0.279493
	C53	C	0.125000	0.165660	0.306244
	C54	C	0.125000	0.125000	0.319095
	C55	C	0.125000	0.084340	0.306244
	C56	C	0.125000	0.085424	0.279493
	H57	H	0.125000	0.125000	0.339761
	H58	H	0.125000	0.054526	0.269105
	H59	H	0.125000	0.195474	0.269105
	C60	C	-0.000000	0.000000	0.515614
	C61	C	-0.000000	-0.039576	0.529493
	C62	C	-0.000000	-0.040660	0.556244
	C63	C	-0.000000	0.000000	0.569095
	C64	C	-0.000000	0.040660	0.556244
	C65	C	-0.000000	0.039576	0.529493
	H66	H	-0.000000	0.000000	0.589761
	H67	H	-0.000000	0.070474	0.519105
	H68	H	-0.000000	-0.070474	0.519105
	O69	O	-0.000000	0.125000	0.558292
	O70	O	0.000000	0.085929	0.597445
	O71	O	-0.000000	0.164071	0.597445
	B72	B	-0.000000	0.085015	0.571083
	B73	B	0.000000	0.125000	0.611047
	B74	B	-0.000000	0.164985	0.571083
	O75	O	0.039071	0.000000	0.972445
	O76	O	0.000000	0.000000	0.933292
	O77	O	-0.039071	-0.000000	0.972445
	B78	B	0.039985	0.000000	0.946083
	B79	B	-0.039985	0.000000	0.946083
	B80	B	-0.000000	-0.000000	0.986047
	C81	C	-0.000000	0.125000	0.640614
	C82	C	0.039576	0.125000	0.654493
	C83	C	0.040660	0.125000	0.681244
	C84	C	-0.000000	0.125000	0.694095
	C85	C	-0.040660	0.125000	0.681244
	C86	C	-0.039576	0.125000	0.654493
	H87	H	-0.000000	0.125000	0.714761
	H88	H	-0.070474	0.125000	0.644105
	H89	H	0.070474	0.125000	0.644105
	C90	C	0.125000	0.000000	0.890614
	C91	C	0.085424	0.000000	0.904493
	C92	C	0.084340	0.000000	0.931244
	C93	C	0.125000	0.000000	0.944095
	C94	C	0.165660	0.000000	0.931244
	C95	C	0.164576	0.000000	0.904493
	H96	H	0.125000	0.000000	0.964761
	H97	H	0.195474	0.000000	0.894105
	H98	H	0.054526	0.000000	0.894105
	O99	O	0.125000	0.125000	0.683292
	O100	O	0.164071	0.125000	0.722445
	O101	O	0.085929	0.125000	0.722445
	B102	B	0.164985	0.125000	0.696083
	B103	B	0.125000	0.125000	0.736047
	B104	B	0.085015	0.125000	0.696083
	O105	O	0.125000	-0.039071	0.847445
	O106	O	0.125000	-0.000000	0.808292
	O107	O	0.125000	0.039071	0.847445
	B108	B	0.125000	-0.039985	0.821083
	B109	B	0.125000	0.039985	0.821083
	B110	B	0.125000	0.000000	0.861047
	C111	C	0.125000	0.125000	0.765614
	C112	C	0.125000	0.164576	0.779493
	C113	C	0.125000	0.165660	0.806244
	C114	C	0.125000	0.125000	0.819095
	C115	C	0.125000	0.084340	0.806244
	C116	C	0.125000	0.085424	0.779493
	H117	H	0.125000	0.125000	0.839761
	H118	H	0.125000	0.054526	0.769105
	H119	H	0.125000	0.195474	0.769105
	C120	C	-0.000000	0.250000	0.015614
	C121	C	-0.000000	0.210424	0.029493
	C122	C	-0.000000	0.209340	0.056244
	C123	C	-0.000000	0.250000	0.069095
	C124	C	-0.000000	0.290660	0.056244
	C125	C	-0.000000	0.289576	0.029493
	H126	H	-0.000000	0.250000	0.089761
	H127	H	-0.000000	0.320474	0.019105
	H128	H	-0.000000	0.179526	0.019105
	O129	O	-0.000000	0.375000	0.058292
	O130	O	0.000000	0.335929	0.097445
	O131	O	-0.000000	0.414071	0.097445
	B132	B	-0.000000	0.335015	0.071083
	B133	B	0.000000	0.375000	0.111047
	B134	B	-0.000000	0.414985	0.071083
	O135	O	0.039071	0.250000	0.472445
	O136	O	0.000000	0.250000	0.433292
	O137	O	-0.039071	0.250000	0.472445
	B138	B	0.039985	0.250000	0.446083
	B139	B	-0.039985	0.250000	0.446083
	B140	B	-0.000000	0.250000	0.486047
	C141	C	-0.000000	0.375000	0.140614
	C142	C	0.039576	0.375000	0.154493
	C143	C	0.040660	0.375000	0.181244
	C144	C	-0.000000	0.375000	0.194095
	C145	C	-0.040660	0.375000	0.181244
	C146	C	-0.039576	0.375000	0.154493
	H147	H	-0.000000	0.375000	0.214761
	H148	H	-0.070474	0.375000	0.144105
	H149	H	0.070474	0.375000	0.144105
	C150	C	0.125000	0.250000	0.390614
	C151	C	0.085424	0.250000	0.404493
	C152	C	0.084340	0.250000	0.431244
	C153	C	0.125000	0.250000	0.444095
	C154	C	0.165660	0.250000	0.431244
	C155	C	0.164576	0.250000	0.404493
	H156	H	0.125000	0.250000	0.464761
	H157	H	0.195474	0.250000	0.394105
	H158	H	0.054526	0.250000	0.394105
	O159	O	0.125000	0.375000	0.183292
	O160	O	0.164071	0.375000	0.222445
	O161	O	0.085929	0.375000	0.222445
	B162	B	0.164985	0.375000	0.196083
	B163	B	0.125000	0.375000	0.236047
	B164	B	0.085015	0.375000	0.196083
	O165	O	0.125000	0.210929	0.347445
	O166	O	0.125000	0.250000	0.308292
	O167	O	0.125000	0.289071	0.347445
	B168	B	0.125000	0.210015	0.321083
	B169	B	0.125000	0.289985	0.321083
	B170	B	0.125000	0.250000	0.361047
	C171	C	0.125000	0.375000	0.265614
	C172	C	0.125000	0.414576	0.279493
	C173	C	0.125000	0.415660	0.306244
	C174	C	0.125000	0.375000	0.319095
	C175	C	0.125000	0.334340	0.306244
	C176	C	0.125000	0.335424	0.279493
	H177	H	0.125000	0.375000	0.339761
	H178	H	0.125000	0.304526	0.269105
	H179	H	0.125000	0.445474	0.269105
	C180	C	-0.000000	0.250000	0.515614
	C181	C	-0.000000	0.210424	0.529493
	C182	C	-0.000000	0.209340	0.556244
	C183	C	-0.000000	0.250000	0.569095
	C184	C	-0.000000	0.290660	0.556244
	C185	C	-0.000000	0.289576	0.529493
	H186	H	-0.000000	0.250000	0.589761
	H187	H	-0.000000	0.320474	0.519105
	H188	H	-0.000000	0.179526	0.519105
	O189	O	-0.000000	0.375000	0.558292
	O190	O	0.000000	0.335929	0.597445
	O191	O	-0.000000	0.414071	0.597445
	B192	B	-0.000000	0.335015	0.571083
	B193	B	0.000000	0.375000	0.611047
	B194	B	-0.000000	0.414985	0.571083
	O195	O	0.039071	0.250000	0.972445
	O196	O	0.000000	0.250000	0.933292
	O197	O	-0.039071	0.250000	0.972445
	B198	B	0.039985	0.250000	0.946083
	B199	B	-0.039985	0.250000	0.946083
	B200	B	-0.000000	0.250000	0.986047
	C201	C	-0.000000	0.375000	0.640614
	C202	C	0.039576	0.375000	0.654493
	C203	C	0.040660	0.375000	0.681244
	C204	C	-0.000000	0.375000	0.694095
	C205	C	-0.040660	0.375000	0.681244
	C206	C	-0.039576	0.375000	0.654493
	H207	H	-0.000000	0.375000	0.714761
	H208	H	-0.070474	0.375000	0.644105
	H209	H	0.070474	0.375000	0.644105
	C210	C	0.125000	0.250000	0.890614
	C211	C	0.085424	0.250000	0.904493
	C212	C	0.084340	0.250000	0.931244
	C213	C	0.125000	0.250000	0.944095
	C214	C	0.165660	0.250000	0.931244
	C215	C	0.164576	0.250000	0.904493
	H216	H	0.125000	0.250000	0.964761
	H217	H	0.195474	0.250000	0.894105
	H218	H	0.054526	0.250000	0.894105
	O219	O	0.125000	0.375000	0.683292
	O220	O	0.164071	0.375000	0.722445
	O221	O	0.085929	0.375000	0.722445
	B222	B	0.164985	0.375000	0.696083
	B223	B	0.125000	0.375000	0.736047
	B224	B	0.085015	0.375000	0.696083
	O225	O	0.125000	0.210929	0.847445
	O226	O	0.125000	0.250000	0.808292
	O227	O	0.125000	0.289071	0.847445
	B228	B	0.125000	0.210015	0.821083
	B229	B	0.125000	0.289985	0.821083
	B230	B	0.125000	0.250000	0.861047
	C231	C	0.125000	0.375000	0.765614
	C232	C	0.125000	0.414576	0.779493
	C233	C	0.125000	0.415660	0.806244
	C234	C	0.125000	0.375000	0.819095
	C235	C	0.125000	0.334340	0.806244
	C236	C	0.125000	0.335424	0.779493
	H237	H	0.125000	0.375000	0.839761
	H238	H	0.125000	0.304526	0.769105
	H239	H	0.125000	0.445474	0.769105
	C240	C	-0.000000	0.500000	0.015614
	C241	C	-0.000000	0.460424	0.029493
	C242	C	-0.000000	0.459340	0.056244
	C243	C	-0.000000	0.500000	0.069095
	C244	C	-0.000000	0.540660	0.056244
	C245	C	-0.000000	0.539576	0.029493
	H246	H	-0.000000	0.500000	0.089761
	H247	H	-0.000000	0.570474	0.019105
	H248	H	-0.000000	0.429526	0.019105
	O249	O	-0.000000	0.625000	0.058292
	O250	O	0.000000	0.585929	0.097445
	O251	O	-0.000000	0.664071	0.097445
	B252	B	-0.000000	0.585015	0.071083
	B253	B	0.000000	0.625000	0.111047
	B254	B	-0.000000	0.664985	0.071083
	O255	O	0.039071	0.500000	0.472445
	O256	O	0.000000	0.500000	0.433292
	O257	O	-0.039071	0.500000	0.472445
	B258	B	0.039985	0.500000	0.446083
	B259	B	-0.039985	0.500000	0.446083
	B260	B	-0.000000	0.500000	0.486047
	C261	C	-0.000000	0.625000	0.140614
	C262	C	0.039576	0.625000	0.154493
	C263	C	0.040660	0.625000	0.181244
	C264	C	-0.000000	0.625000	0.194095
	C265	C	-0.040660	0.625000	0.181244
	C266	C	-0.039576	0.625000	0.154493
	H267	H	-0.000000	0.625000	0.214761
	H268	H	-0.070474	0.625000	0.144105
	H269	H	0.070474	0.625000	0.144105
	C270	C	0.125000	0.500000	0.390614
	C271	C	0.085424	0.500000	0.404493
	C272	C	0.084340	0.500000	0.431244
	C273	C	0.125000	0.500000	0.444095
	C274	C	0.165660	0.500000	0.431244
	C275	C	0.164576	0.500000	0.404493
	H276	H	0.125000	0.500000	0.464761
	H277	H	0.195474	0.500000	0.394105
	H278	H	0.054526	0.500000	0.394105
	O279	O	0.125000	0.625000	0.183292
	O280	O	0.164071	0.625000	0.222445
	O281	O	0.085929	0.625000	0.222445
	B282	B	0.164985	0.625000	0.196083
	B283	B	0.125000	0.625000	0.236047
	B284	B	0.085015	0.625000	0.196083
	O285	O	0.125000	0.460929	0.347445
	O286	O	0.125000	0.500000	0.308292
	O287	O	0.125000	0.539071	0.347445
	B288	B	0.125000	0.460015	0.321083
	B289	B	0.125000	0.539985	0.321083
	B290	B	0.125000	0.500000	0.361047
	C291	C	0.125000	0.625000	0.265614
	C292	C	0.125000	0.664576	0.279493
	C293	C	0.125000	0.665660	0.306244
	C294	C	0.125000	0.625000	0.319095
	C295	C	0.125000	0.584340	0.306244
	C296	C	0.125000	0.585424	0.279493
	H297	H	0.125000	0.625000	0.339761
	H298	H	0.125000	0.554526	0.269105
	H299	H	0.125000	0.695474	0.269105
	C300	C	-0.000000	0.500000	0.515614
	C301	C	-0.000000	0.460424	0.529493
	C302	C	-0.000000	0.459340	0.556244
	C303	C	-0.000000	0.500000	0.569095
	C304	C	-0.000000	0.540660	0.556244
	C305	C	-0.000000	0.539576	0.529493
	H306	H	-0.000000	0.500000	0.589761
	H307	H	-0.000000	0.570474	0.519105
	H308	H	-0.000000	0.429526	0.519105
	O309	O	-0.000000	0.625000	0.558292
	O310	O	0.000000	0.585929	0.597445
	O311	O	-0.000000	0.664071	0.597445
	B312	B	-0.000000	0.585015	0.571083
	B313	B	0.000000	0.625000	0.611047
	B314	B	-0.000000	0.664985	0.571083
	O315	O	0.039071	0.500000	0.972445
	O316	O	0.000000	0.500000	0.933292
	O317	O	-0.039071	0.500000	0.972445
	B318	B	0.039985	0.500000	0.946083
	B319	B	-0.039985	0.500000	0.946083
	B320	B	-0.000000	0.500000	0.986047
	C321	C	-0.000000	0.625000	0.640614
	C322	C	0.039576	0.625000	0.654493
	C323	C	0.040660	0.625000	0.681244
	C324	C	-0.000000	0.625000	0.694095
	C325	C	-0.040660	0.625000	0.681244
	C326	C	-0.039576	0.625000	0.654493
	H327	H	-0.000000	0.625000	0.714761
	H328	H	-0.070474	0.625000	0.644105
	H329	H	0.070474	0.625000	0.644105
	C330	C	0.125000	0.500000	0.890614
	C331	C	0.085424	0.500000	0.904493
	C332	C	0.084340	0.500000	0.931244
	C333	C	0.125000	0.500000	0.944095
	C334	C	0.165660	0.500000	0.931244
	C335	C	0.164576	0.500000	0.904493
	H336	H	0.125000	0.500000	0.964761
	H337	H	0.195474	0.500000	0.894105
	H338	H	0.054526	0.500000	0.894105
	O339	O	0.125000	0.625000	0.683292
	O340	O	0.164071	0.625000	0.722445
	O341	O	0.085929	0.625000	0.722445
	B342	B	0.164985	0.625000	0.696083
	B343	B	0.125000	0.625000	0.736047
	B344	B	0.085015	0.625000	0.696083
	O345	O	0.125000	0.460929	0.847445
	O346	O	0.125000	0.500000	0.808292
	O347	O	0.125000	0.539071	0.847445
	B348	B	0.125000	0.460015	0.821083
	B349	B	0.125000	0.539985	0.821083
	B350	B	0.125000	0.500000	0.861047
	C351	C	0.125000	0.625000	0.765614
	C352	C	0.125000	0.664576	0.779493
	C353	C	0.125000	0.665660	0.806244
	C354	C	0.125000	0.625000	0.819095
	C355	C	0.125000	0.584340	0.806244
	C356	C	0.125000	0.585424	0.779493
	H357	H	0.125000	0.625000	0.839761
	H358	H	0.125000	0.554526	0.769105
	H359	H	0.125000	0.695474	0.769105
	C360	C	-0.000000	0.750000	0.015614
	C361	C	-0.000000	0.710424	0.029493
	C362	C	-0.000000	0.709340	0.056244
	C363	C	-0.000000	0.750000	0.069095
	C364	C	-0.000000	0.790660	0.056244
	C365	C	-0.000000	0.789576	0.029493
	H366	H	-0.000000	0.750000	0.089761
	H367	H	-0.000000	0.820474	0.019105
	H368	H	-0.000000	0.679526	0.019105
	O369	O	-0.000000	0.875000	0.058292
	O370	O	0.000000	0.835929	0.097445
	O371	O	-0.000000	0.914071	0.097445
	B372	B	-0.000000	0.835015	0.071083
	B373	B	0.000000	0.875000	0.111047
	B374	B	-0.000000	0.914985	0.071083
	O375	O	0.039071	0.750000	0.472445
	O376	O	0.000000	0.750000	0.433292
	O377	O	-0.039071	0.750000	0.472445
	B378	B	0.039985	0.750000	0.446083
	B379	B	-0.039985	0.750000	0.446083
	B380	B	-0.000000	0.750000	0.486047
	C381	C	-0.000000	0.875000	0.140614
	C382	C	0.039576	0.875000	0.154493
	C383	C	0.040660	0.875000	0.181244
	C384	C	-0.000000	0.875000	0.194095
	C385	C	-0.040660	0.875000	0.181244
	C386	C	-0.039576	0.875000	0.154493
	H387	H	-0.000000	0.875000	0.214761
	H388	H	-0.070474	0.875000	0.144105
	H389	H	0.070474	0.875000	0.144105
	C390	C	0.125000	0.750000	0.390614
	C391	C	0.085424	0.750000	0.404493
	C392	C	0.084340	0.750000	0.431244
	C393	C	0.125000	0.750000	0.444095
	C394	C	0.165660	0.750000	0.431244
	C395	C	0.164576	0.750000	0.404493
	H396	H	0.125000	0.750000	0.464761
	H397	H	0.195474	0.750000	0.394105
	H398	H	0.054526	0.750000	0.394105
	O399	O	0.125000	0.875000	0.183292
	O400	O	0.164071	0.875000	0.222445
	O401	O	0.085929	0.875000	0.222445
	B402	B	0.164985	0.875000	0.196083
	B403	B	0.125000	0.875000	0.236047
	B404	B	0.085015	0.875000	0.196083
	O405	O	0.125000	0.710929	0.347445
	O406	O	0.125000	0.750000	0.308292
	O407	O	0.125000	0.789071	0.347445
	B408	B	0.125000	0.710015	0.321083
	B409	B	0.125000	0.789985	0.321083
	B410	B	0.125000	0.750000	0.361047
	C411	C	0.125000	0.875000	0.265614
	C412	C	0.125000	0.914576	0.279493
	C413	C	0.125000	0.915660	0.306244
	C414	C	0.125000	0.875000	0.319095
	C415	C	0.125000	0.834340	0.306244
	C416	C	0.125000	0.835424	0.279493
	H417	H	0.125000	0.875000	0.339761
	H418	H	0.125000	0.804526	0.269105
	H419	H	0.125000	0.945474	0.269105
	C420	C	-0.000000	0.750000	0.515614
	C421	C	-0.000000	0.710424	0.529493
	C422	C	-0.000000	0.709340	0.556244
	C423	C	-0.000000	0.750000	0.569095
	C424	C	-0.000000	0.790660	0.556244
	C425	C	-0.000000	0.789576	0.529493
	H426	H	-0.000000	0.750000	0.589761
	H427	H	-0.000000	0.820474	0.519105
	H428	H	-0.000000	0.679526	0.519105
	O429	O	-0.000000	0.875000	0.558292
	O430	O	0.000000	0.835929	0.597445
	O431	O	-0.000000	0.914071	0.597445
	B432	B	-0.000000	0.835015	0.571083
	B433	B	0.000000	0.875000	0.611047
	B434	B	-0.000000	0.914985	0.571083
	O435	O	0.039071	0.750000	0.972445
	O436	O	0.000000	0.750000	0.933292
	O437	O	-0.039071	0.750000	0.972445
	B438	B	0.039985	0.750000	0.946083
	B439	B	-0.039985	0.750000	0.946083
	B440	B	-0.000000	0.750000	0.986047
	C441	C	-0.000000	0.875000	0.640614
	C442	C	0.039576	0.875000	0.654493
	C443	C	0.040660	0.875000	0.681244
	C444	C	-0.000000	0.875000	0.694095
	C445	C	-0.040660	0.875000	0.681244
	C446	C	-0.039576	0.875000	0.654493
	H447	H	-0.000000	0.875000	0.714761
	H448	H	-0.070474	0.875000	0.644105
	H449	H	0.070474	0.875000	0.644105
	C450	C	0.125000	0.750000	0.890614
	C451	C	0.085424	0.750000	0.904493
	C452	C	0.084340	0.750000	0.931244
	C453	C	0.125000	0.750000	0.944095
	C454	C	0.165660	0.750000	0.931244
	C455	C	0.164576	0.750000	0.904493
	H456	H	0.125000	0.750000	0.964761
	H457	H	0.195474	0.750000	0.894105
	H458	H	0.054526	0.750000	0.894105
	O459	O	0.125000	0.875000	0.683292
	O460	O	0.164071	0.875000	0.722445
	O461	O	0.085929	0.875000	0.722445
	B462	B	0.164985	0.875000	0.696083
	B463	B	0.125000	0.875000	0.736047
	B464	B	0.085015	0.875000	0.696083
	O465	O	0.125000	0.710929	0.847445
	O466	O	0.125000	0.750000	0.808292
	O467	O	0.125000	0.789071	0.847445
	B468	B	0.125000	0.710015	0.821083
	B469	B	0.125000	0.789985	0.821083
	B470	B	0.125000	0.750000	0.861047
	C471	C	0.125000	0.875000	0.765614
	C472	C	0.125000	0.914576	0.779493
	C473	C	0.125000	0.915660	0.806244
	C474	C	0.125000	0.875000	0.819095
	C475	C	0.125000	0.834340	0.806244
	C476	C	0.125000	0.835424	0.779493
	H477	H	0.125000	0.875000	0.839761
	H478	H	0.125000	0.804526	0.769105
	H479	H	0.125000	0.945474	0.769105
	C480	C	0.250000	0.000000	0.015614
	C481	C	0.250000	-0.039576	0.029493
	C482	C	0.250000	-0.040660	0.056244
	C483	C	0.250000	0.000000	0.069095
	C484	C	0.250000	0.040660	0.056244
	C485	C	0.250000	0.039576	0.029493
	H486	H	0.250000	0.000000	0.089761
	H487	H	0.250000	0.070474	0.019105
	H488	H	0.250000	-0.070474	0.019105
	O489	O	0.250000	0.125000	0.058292
	O490	O	0.250000	0.085929	0.097445
	O491	O	0.250000	0.164071	0.097445
	B492	B	0.250000	0.085015	0.071083
	B493	B	0.250000	0.125000	0.111047
	B494	B	0.250000	0.164985	0.071083
	O495	O	0.289071	0.000000	0.472445
	O496	O	0.250000	0.000000	0.433292
	O497	O	0.210929	-0.000000	0.472445
	B498	B	0.289985	0.000000	0.446083
	B499	B	0.210015	0.000000	0.446083
	B500	B	0.250000	-0.000000	0.486047
	C501	C	0.250000	0.125000	0.140614
	C502	C	0.289576	0.125000	0.154493
	C503	C	0.290660	0.125000	0.181244
	C504	C	0.250000	0.125000	0.194095
	C505	C	0.209340	0.125000	0.181244
	C506	C	0.210424	0.125000	0.154493
	H507	H	0.250000	0.125000	0.214761
	H508	H	0.179526	0.125000	0.144105
	H509	H	0.320474	0.125000	0.144105
	C510	C	0.375000	0.000000	0.390614
	C511	C	0.335424	0.000000	0.404493
	C512	C	0.334340	0.000000	0.431244
	C513	C	0.375000	0.000000	0.444095
	C514	C	0.415660	0.000000	0.431244
	C515	C	0.414576	0.000000	0.404493
	H516	H	0.375000	0.000000	0.464761
	H517	H	0.445474	0.000000	0.394105
	H518	H	0.304526	0.000000	0.394105
	O519	O	0.375000	0.125000	0.183292
	O520	O	0.414071	0.125000	0.222445
	O521	O	0.335929	0.125000	0.222445
	B522	B	0.414985	0.125000	0.196083
	B523	B	0.375000	0.125000	0.236047
	B524	B	0.335015	0.125000	0.196083
	O525	O	0.375000	-0.039071	0.347445
	O526	O	0.375000	-0.000000	0.308292
	O527	O	0.375000	0.039071	0.347445
	B528	B	0.375000	-0.039985	0.321083
	B529	B	0.375000	0.039985	0.321083
	B530	B	0.375000	0.000000	0.361047
	C531	C	0.375000	0.125000	0.265614
	C532	C	0.375000	0.164576	0.279493
	C533	C	0.375000	0.165660	0.306244
	C534	C	0.375000	0.125000	0.319095
	C535	C	0.375000	0.084340	0.306244
	C536	C	0.375000	0.085424	0.279493
	H537	H	0.375000	0.125000	0.339761
	H538	H	0.375000	0.054526	0.269105
	H539	H	0.375000	0.195474	0.269105
	C540	C	0.250000	0.000000	0.515614
	C541	C	0.250000	-0.039576	0.529493
	C542	C	0.250000	-0.040660	0.556244
	C543	C	0.250000	0.000000	0.569095
	C544	C	0.250000	0.040660	0.556244
	C545	C	0.250000	0.039576	0.529493
	H546	H	0.250000	0.000000	0.589761
	H547	H	0.250000	0.070474	0.519105
	H548	H	0.250000	-0.070474	0.519105
	O549	O	0.250000	0.125000	0.558292
	O550	O	0.250000	0.085929	0.597445
	O551	O	0.250000	0.164071	0.597445
	B552	B	0.250000	0.085015	0.571083
	B553	B	0.250000	0.125000	0.611047
	B554	B	0.250000	0.164985	0.571083
	O555	O	0.289071	0.000000	0.972445
	O556	O	0.250000	0.000000	0.933292
	O557	O	0.210929	-0.000000	0.972445
	B558	B	0.289985	0.000000	0.946083
	B559	B	0.210015	0.000000	0.946083
	B560	B	0.250000	-0.000000	0.986047
	C561	C	0.250000	0.125000	0.640614
	C562	C	0.289576	0.125000	0.654493
	C563	C	0.290660	0.125000	0.681244
	C564	C	0.250000	0.125000	0.694095
	C565	C	0.209340	0.125000	0.681244
	C566	C	0.210424	0.125000	0.654493
	H567	H	0.250000	0.125000	0.714761
	H568	H	0.179526	0.125000	0.644105
	H569	H	0.320474	0.125000	0.644105
	C570	C	0.375000	0.000000	0.890614
	C571	C	0.335424	0.000000	0.904493
	C572	C	0.334340	0.000000	0.931244
	C573	C	0.375000	0.000000	0.944095
	C574	C	0.415660	0.000000	0.931244
	C575	C	0.414576	0.000000	0.904493
	H576	H	0.375000	0.000000	0.964761
	H577	H	0.445474	0.000000	0.894105
	H578	H	0.304526	0.000000	0.894105
	O579	O	0.375000	0.125000	0.683292
	O580	O	0.414071	0.125000	0.722445
	O581	O	0.335929	0.125000	0.722445
	B582	B	0.414985	0.125000	0.696083
	B583	B	0.375000	0.125000	0.736047
	B584	B	0.335015	0.125000	0.696083
	O585	O	0.375000	-0.039071	0.847445
	O586	O	0.375000	-0.000000	0.808292
	O587	O	0.375000	0.039071	0.847445
	B588	B	0.375000	-0.039985	0.821083
	B589	B	0.375000	0.039985	0.821083
	B590	B	0.375000	0.000000	0.861047
	C591	C	0.375000	0.125000	0.765614
	C592	C	0.375000	0.164576	0.779493
	C593	C	0.375000	0.165660	0.806244
	C594	C	0.375000	0.125000	0.819095
	C595	C	0.375000	0.084340	0.806244
	C596	C	0.375000	0.085424	0.779493
	H597	H	0.375000	0.125000	0.839761
	H598	H	0.375000	0.054526	0.769105
	H599	H	0.375000	0.195474	0.769105
	C600	C	0.250000	0.250000	0.015614
	C601	C	0.250000	0.210424	0.029493
	C602	C	0.250000	0.209340	0.056244
	C603	C	0.250000	0.250000	0.069095
	C604	C	0.250000	0.290660	0.056244
	C605	C	0.250000	0.289576	0.029493
	H606	H	0.250000	0.250000	0.089761
	H607	H	0.250000	0.320474	0.019105
	H608	H	0.250000	0.179526	0.019105
	O609	O	0.250000	0.375000	0.058292
	O610	O	0.250000	0.335929	0.097445
	O611	O	0.250000	0.414071	0.097445
	B612	B	0.250000	0.335015	0.071083
	B613	B	0.250000	0.375000	0.111047
	B614	B	0.250000	0.414985	0.071083
	O615	O	0.289071	0.250000	0.472445
	O616	O	0.250000	0.250000	0.433292
	O617	O	0.210929	0.250000	0.472445
	B618	B	0.289985	0.250000	0.446083
	B619	B	0.210015	0.250000	0.446083
	B620	B	0.250000	0.250000	0.486047
	C621	C	0.250000	0.375000	0.140614
	C622	C	0.289576	0.375000	0.154493
	C623	C	0.290660	0.375000	0.181244
	C624	C	0.250000	0.375000	0.194095
	C625	C	0.209340	0.375000	0.181244
	C626	C	0.210424	0.375000	0.154493
	H627	H	0.250000	0.375000	0.214761
	H628	H	0.179526	0.375000	0.144105
	H629	H	0.320474	0.375000	0.144105
	C630	C	0.375000	0.250000	0.390614
	C631	C	0.335424	0.250000	0.404493
	C632	C	0.334340	0.250000	0.431244
	C633	C	0.375000	0.250000	0.444095
	C634	C	0.415660	0.250000	0.431244
	C635	C	0.414576	0.250000	0.404493
	H636	H	0.375000	0.250000	0.464761
	H637	H	0.445474	0.250000	0.394105
	H638	H	0.304526	0.250000	0.394105
	O639	O	0.375000	0.375000	0.183292
	O640	O	0.414071	0.375000	0.222445
	O641	O	0.335929	0.375000	0.222445
	B642	B	0.414985	0.375000	0.196083
	B643	B	0.375000	0.375000	0.236047
	B644	B	0.335015	0.375000	0.196083
	O645	O	0.375000	0.210929	0.347445
	O646	O	0.375000	0.250000	0.308292
	O647	O	0.375000	0.289071	0.347445
	B648	B	0.375000	0.210015	0.321083
	B649	B	0.375000	0.289985	0.321083
	B650	B	0.375000	0.250000	0.361047
	C651	C	0.375000	0.375000	0.265614
	C652	C	0.375000	0.414576	0.279493
	C653	C	0.375000	0.415660	0.306244
	C654	C	0.375000	0.375000	0.319095
	C655	C	0.375000	0.334340	0.306244
	C656	C	0.375000	0.335424	0.279493
	H657	H	0.375000	0.375000	0.339761
	H658	H	0.375000	0.304526	0.269105
	H659	H	0.375000	0.445474	0.269105
	C660	C	0.250000	0.250000	0.515614
	C661	C	0.250000	0.210424	0.529493
	C662	C	0.250000	0.209340	0.556244
	C663	C	0.250000	0.250000	0.569095
	C664	C	0.250000	0.290660	0.556244
	C665	C	0.250000	0.289576	0.529493
	H666	H	0.250000	0.250000	0.589761
	H667	H	0.250000	0.320474	0.519105
	H668	H	0.250000	0.179526	0.519105
	O669	O	0.250000	0.375000	0.558292
	O670	O	0.250000	0.335929	0.597445
	O671	O	0.250000	0.414071	0.597445
	B672	B	0.250000	0.335015	0.571083
	B673	B	0.250000	0.375000	0.611047
	B674	B	0.250000	0.414985	0.571083
	O675	O	0.289071	0.250000	0.972445
	O676	O	0.250000	0.250000	0.933292
	O677	O	0.210929	0.250000	0.972445
	B678	B	0.289985	0.250000	0.946083
	B679	B	0.210015	0.250000	0.946083
	B680	B	0.250000	0.250000	0.986047
	C681	C	0.250000	0.375000	0.640614
	C682	C	0.289576	0.375000	0.654493
	C683	C	0.290660	0.375000	0.681244
	C684	C	0.250000	0.375000	0.694095
	C685	C	0.209340	0.375000	0.681244
	C686	C	0.210424	0.375000	0.654493
	H687	H	0.250000	0.375000	0.714761
	H688	H	0.179526	0.375000	0.644105
	H689	H	0.320474	0.375000	0.644105
	C690	C	0.375000	0.250000	0.890614
	C691	C	0.335424	0.250000	0.904493
	C692	C	0.334340	0.250000	0.931244
	C693	C	0.375000	0.250000	0.944095
	C694	C	0.415660	0.250000	0.931244
	C695	C	0.414576	0.250000	0.904493
	H696	H	0.375000	0.250000	0.964761
	H697	H	0.445474	0.250000	0.894105
	H698	H	0.304526	0.250000	0.894105
	O699	O	0.375000	0.375000	0.683292
	O700	O	0.414071	0.375000	0.722445
	O701	O	0.335929	0.375000	0.722445
	B702	B	0.414985	0.375000	0.696083
	B703	B	0.375000	0.375000	0.736047
	B704	B	0.335015	0.375000	0.696083
	O705	O	0.375000	0.210929	0.847445
	O706	O	0.375000	0.250000	0.808292
	O707	O	0.375000	0.289071	0.847445
	B708	B	0.375000	0.210015	0.821083
	B709	B	0.375000	0.289985	0.821083
	B710	B	0.375000	0.250000	0.861047
	C711	C	0.375000	0.375000	0.765614
	C712	C	0.375000	0.414576	0.779493
	C713	C	0.375000	0.415660	0.806244
	C714	C	0.375000	0.375000	0.819095
	C715	C	0.375000	0.334340	0.806244
	C716	C	0.375000	0.335424	0.779493
	H717	H	0.375000	0.375000	0.839761
	H718	H	0.375000	0.304526	0.769105
	H719	H	0.375000	0.445474	0.769105
	C720	C	0.250000	0.500000	0.015614
	C721	C	0.250000	0.460424	0.029493
	C722	C	0.250000	0.459340	0.056244
	C723	C	0.250000	0.500000	0.069095
	C724	C	0.250000	0.540660	0.056244
	C725	C	0.250000	0.539576	0.029493
	H726	H	0.250000	0.500000	0.089761
	H727	H	0.250000	0.570474	0.019105
	H728	H	0.250000	0.429526	0.019105
	O729	O	0.250000	0.625000	0.058292
	O730	O	0.250000	0.585929	0.097445
	O731	O	0.250000	0.664071	0.097445
	B732	B	0.250000	0.585015	0.071083
	B733	B	0.250000	0.625000	0.111047
	B734	B	0.250000	0.664985	0.071083
	O735	O	0.289071	0.500000	0.472445
	O736	O	0.250000	0.500000	0.433292
	O737	O	0.210929	0.500000	0.472445
	B738	B	0.289985	0.500000	0.446083
	B739	B	0.210015	0.500000	0.446083
	B740	B	0.250000	0.500000	0.486047
	C741	C	0.250000	0.625000	0.140614
	C742	C	0.289576	0.625000	0.154493
	C743	C	0.290660	0.625000	0.181244
	C744	C	0.250000	0.625000	0.194095
	C745	C	0.209340	0.625000	0.181244
	C746	C	0.210424	0.625000	0.154493
	H747	H	0.250000	0.625000	0.214761
	H748	H	0.179526	0.625000	0.144105
	H749	H	0.320474	0.625000	0.144105
	C750	C	0.375000	0.500000	0.390614
	C751	C	0.335424	0.500000	0.404493
	C752	C	0.334340	0.500000	0.431244
	C753	C	0.375000	0.500000	0.444095
	C754	C	0.415660	0.500000	0.431244
	C755	C	0.414576	0.500000	0.404493
	H756	H	0.375000	0.500000	0.464761
	H757	H	0.445474	0.500000	0.394105
	H758	H	0.304526	0.500000	0.394105
	O759	O	0.375000	0.625000	0.183292
	O760	O	0.414071	0.625000	0.222445
	O761	O	0.335929	0.625000	0.222445
	B762	B	0.414985	0.625000	0.196083
	B763	B	0.375000	0.625000	0.236047
	B764	B	0.335015	0.625000	0.196083
	O765	O	0.375000	0.460929	0.347445
	O766	O	0.375000	0.500000	0.308292
	O767	O	0.375000	0.539071	0.347445
	B768	B	0.375000	0.460015	0.321083
	B769	B	0.375000	0.539985	0.321083
	B770	B	0.375000	0.500000	0.361047
	C771	C	0.375000	0.625000	0.265614
	C772	C	0.375000	0.664576	0.279493
	C773	C	0.375000	0.665660	0.306244
	C774	C	0.375000	0.625000	0.319095
	C775	C	0.375000	0.584340	0.306244
	C776	C	0.375000	0.585424	0.279493
	H777	H	0.375000	0.625000	0.339761
	H778	H	0.375000	0.554526	0.269105
	H779	H	0.375000	0.695474	0.269105
	C780	C	0.250000	0.500000	0.515614
	C781	C	0.250000	0.460424	0.529493
	C782	C	0.250000	0.459340	0.556244
	C783	C	0.250000	0.500000	0.569095
	C784	C	0.250000	0.540660	0.556244
	C785	C	0.250000	0.539576	0.529493
	H786	H	0.250000	0.500000	0.589761
	H787	H	0.250000	0.570474	0.519105
	H788	H	0.250000	0.429526	0.519105
	O789	O	0.250000	0.625000	0.558292
	O790	O	0.250000	0.585929	0.597445
	O791	O	0.250000	0.664071	0.597445
	B792	B	0.250000	0.585015	0.571083
	B793	B	0.250000	0.625000	0.611047
	B794	B	0.250000	0.664985	0.571083
	O795	O	0.289071	0.500000	0.972445
	O796	O	0.250000	0.500000	0.933292
	O797	O	0.210929	0.500000	0.972445
	B798	B	0.289985	0.500000	0.946083
	B799	B	0.210015	0.500000	0.946083
	B800	B	0.250000	0.500000	0.986047
	C801	C	0.250000	0.625000	0.640614
	C802	C	0.289576	0.625000	0.654493
	C803	C	0.290660	0.625000	0.681244
	C804	C	0.250000	0.625000	0.694095
	C805	C	0.209340	0.625000	0.681244
	C806	C	0.210424	0.625000	0.654493
	H807	H	0.250000	0.625000	0.714761
	H808	H	0.179526	0.625000	0.644105
	H809	H	0.320474	0.625000	0.644105
	C810	C	0.375000	0.500000	0.890614
	C811	C	0.335424	0.500000	0.904493
	C812	C	0.334340	0.500000	0.931244
	C813	C	0.375000	0.500000	0.944095
	C814	C	0.415660	0.500000	0.931244
	C815	C	0.414576	0.500000	0.904493
	H816	H	0.375000	0.500000	0.964761
	H817	H	0.445474	0.500000	0.894105
	H818	H	0.304526	0.500000	0.894105
	O819	O	0.375000	0.625000	0.683292
	O820	O	0.414071	0.625000	0.722445
	O821	O	0.335929	0.625000	0.722445
	B822	B	0.414985	0.625000	0.696083
	B823	B	0.375000	0.625000	0.736047
	B824	B	0.335015	0.625000	0.696083
	O825	O	0.375000	0.460929	0.847445
	O826	O	0.375000	0.500000	0.808292
	O827	O	0.375000	0.539071	0.847445
	B828	B	0.375000	0.460015	0.821083
	B829	B	0.375000	0.539985	0.821083
	B830	B	0.375000	0.500000	0.861047
	C831	C	0.375000	0.625000	0.765614
	C832	C	0.375000	0.664576	0.779493
	C833	C	0.375000	0.665660	0.806244
	C834	C	0.375000	0.625000	0.819095
	C835	C	0.375000	0.584340	0.806244
	C836	C	0.375000	0.585424	0.779493
	H837	H	0.375000	0.625000	0.839761
	H838	H	0.375000	0.554526	0.769105
	H839	H	0.375000	0.695474	0.769105
	C840	C	0.250000	0.750000	0.015614
	C841	C	0.250000	0.710424	0.029493
	C842	C	0.250000	0.709340	0.056244
	C843	C	0.250000	0.750000	0.069095
	C844	C	0.250000	0.790660	0.056244
	C845	C	0.250000	0.789576	0.029493
	H846	H	0.250000	0.750000	0.089761
	H847	H	0.250000	0.820474	0.019105
	H848	H	0.250000	0.679526	0.019105
	O849	O	0.250000	0.875000	0.058292
	O850	O	0.250000	0.835929	0.097445
	O851	O	0.250000	0.914071	0.097445
	B852	B	0.250000	0.835015	0.071083
	B853	B	0.250000	0.875000	0.111047
	B854	B	0.250000	0.914985	0.071083
	O855	O	0.289071	0.750000	0.472445
	O856	O	0.250000	0.750000	0.433292
	O857	O	0.210929	0.750000	0.472445
	B858	B	0.289985	0.750000	0.446083
	B859	B	0.210015	0.750000	0.446083
	B860	B	0.250000	0.750000	0.486047
	C861	C	0.250000	0.875000	0.140614
	C862	C	0.289576	0.875000	0.154493
	C863	C	0.290660	0.875000	0.181244
	C864	C	0.250000	0.875000	0.194095
	C865	C	0.209340	0.875000	0.181244
	C866	C	0.210424	0.875000	0.154493
	H867	H	0.250000	0.875000	0.214761
	H868	H	0.179526	0.875000	0.144105
	H869	H	0.320474	0.875000	0.144105
	C870	C	0.375000	0.750000	0.390614
	C871	C	0.335424	0.750000	0.404493
	C872	C	0.334340	0.750000	0.431244
	C873	C	0.375000	0.750000	0.444095
	C874	C	0.415660	0.750000	0.431244
	C875	C	0.414576	0.750000	0.404493
	H876	H	0.375000	0.750000	0.464761
	H877	H	0.445474	0.750000	0.394105
	H878	H	0.304526	0.750000	0.394105
	O879	O	0.375000	0.875000	0.183292
	O880	O	0.414071	0.875000	0.222445
	O881	O	0.335929	0.875000	0.222445
	B882	B	0.414985	0.875000	0.196083
	B883	B	0.375000	0.875000	0.236047
	B884	B	0.335015	0.875000	0.196083
	O885	O	0.375000	0.710929	0.347445
	O886	O	0.375000	0.750000	0.308292
	O887	O	0.375000	0.789071	0.347445
	B888	B	0.375000	0.710015	0.321083
	B889	B	0.375000	0.789985	0.321083
	B890	B	0.375000	0.750000	0.361047
	C891	C	0.375000	0.875000	0.265614
	C892	C	0.375000	0.914576	0.279493
	C893	C	0.375000	0.915660	0.306244
	C894	C	0.375000	0.875000	0.319095
	C895	C	0.375000	0.834340	0.306244
	C896	C	0.375000	0.835424	0.279493
	H897	H	0.375000	0.875000	0.339761
	H898	H	0.375000	0.804526	0.269105
	H899	H	0.375000	0.945474	0.269105
	C900	C	0.250000	0.750000	0.515614
	C901	C	0.250000	0.710424	0.529493
	C902	C	0.250000	0.709340	0.556244
	C903	C	0.250000	0.750000	0.569095
	C904	C	0.250000	0.790660	0.556244
	C905	C	0.250000	0.789576	0.529493
	H906	H	0.250000	0.750000	0.589761
	H907	H	0.250000	0.820474	0.519105
	H908	H	0.250000	0.679526	0.519105
	O909	O	0.250000	0.875000	0.558292
	O910	O	0.250000	0.835929	0.597445
	O911	O	0.250000	0.914071	0.597445
	B912	B	0.250000	0.835015	0.571083
	B913	B	0.250000	0.875000	0.611047
	B914	B	0.250000	0.914985	0.571083
	O915	O	0.289071	0.750000	0.972445
	O916	O	0.250000	0.750000	0.933292
	O917	O	0.210929	0.750000	0.972445
	B918	B	0.289985	0.750000	0.946083
	B919	B	0.210015	0.750000	0.946083
	B920	B	0.250000	0.750000	0.986047
	C921	C	0.250000	0.875000	0.640614
	C922	C	0.289576	0.875000	0.654493
	C923	C	0.290660	0.875000	0.681244
	C924	C	0.250000	0.875000	0.694095
	C925	C	0.209340	0.875000	0.681244
	C926	C	0.210424	0.875000	0.654493
	H927	H	0.250000	0.875000	0.714761
	H928	H	0.179526	0.875000	0.644105
	H929	H	0.320474	0.875000	0.644105
	C930	C	0.375000	0.750000	0.890614
	C931	C	0.335424	0.750000	0.904493
	C932	C	0.334340	0.750000	0.931244
	C933	C	0.375000	0.750000	0.944095
	C934	C	0.415660	0.750000	0.931244
	C935	C	0.414576	0.750000	0.904493
	H936	H	0.375000	0.750000	0.964761
	H937	H	0.445474	0.750000	0.894105
	H938	H	0.304526	0.750000	0.894105
	O939	O	0.375000	0.875000	0.683292
	O940	O	0.414071	0.875000	0.722445
	O941	O	0.335929	0.875000	0.722445
	B942	B	0.414985	0.875000	0.696083
	B943	B	0.375000	0.875000	0.736047
	B944	B	0.335015	0.875000	0.696083
	O945	O	0.375000	0.710929	0.847445
	O946	O	0.375000	0.750000	0.808292
	O947	O	0.375000	0.789071	0.847445
	B948	B	0.375000	0.710015	0.821083
	B949	B	0.375000	0.789985	0.821083
	B950	B	0.375000	0.750000	0.861047
	C951	C	0.375000	0.875000	0.765614
	C952	C	0.375000	0.914576	0.779493
	C953	C	0.375000	0.915660	0.806244
	C954	C	0.375000	0.875000	0.819095
	C955	C	0.375000	0.834340	0.806244
	C956	C	0.375000	0.835424	0.779493
	H957	H	0.375000	0.875000	0.839761
	H958	H	0.375000	0.804526	0.769105
	H959	H	0.375000	0.945474	0.769105
	C960	C	0.500000	0.000000	0.015614
	C961	C	0.500000	-0.039576	0.029493
	C962	C	0.500000	-0.040660	0.056244
	C963	C	0.500000	0.000000	0.069095
	C964	C	0.500000	0.040660	0.056244
	C965	C	0.500000	0.039576	0.029493
	H966	H	0.500000	0.000000	0.089761
	H967	H	0.500000	0.070474	0.019105
	H968	H	0.500000	-0.070474	0.019105
	O969	O	0.500000	0.125000	0.058292
	O970	O	0.500000	0.085929	0.097445
	O971	O	0.500000	0.164071	0.097445
	B972	B	0.500000	0.085015	0.071083
	B973	B	0.500000	0.125000	0.111047
	B974	B	0.500000	0.164985	0.071083
	O975	O	0.539071	0.000000	0.472445
	O976	O	0.500000	0.000000	0.433292
	O977	O	0.460929	-0.000000	0.472445
	B978	B	0.539985	0.000000	0.446083
	B979	B	0.460015	0.000000	0.446083
	B980	B	0.500000	-0.000000	0.486047
	C981	C	0.500000	0.125000	0.140614
	C982	C	0.539576	0.125000	0.154493
	C983	C	0.540660	0.125000	0.181244
	C984	C	0.500000	0.125000	0.194095
	C985	C	0.459340	0.125000	0.181244
	C986	C	0.460424	0.125000	0.154493
	H987	H	0.500000	0.125000	0.214761
	H988	H	0.429526	0.125000	0.144105
	H989	H	0.570474	0.125000	0.144105
	C990	C	0.625000	0.000000	0.390614
	C991	C	0.585424	0.000000	0.404493
	C992	C	0.584340	0.000000	0.431244
	C993	C	0.625000	0.000000	0.444095
	C994	C	0.665660	0.000000	0.431244
	C995	C	0.664576	0.000000	0.404493
	H996	H	0.625000	0.000000	0.464761
	H997	H	0.695474	0.000000	0.394105
	H998	H	0.554526	0.000000	0.394105
	O999	O	0.625000	0.125000	0.183292
	O1000	O	0.664071	0.125000	0.222445
	O1001	O	0.585929	0.125000	0.222445
	B1002	B	0.664985	0.125000	0.196083
	B1003	B	0.625000	0.125000	0.236047
	B1004	B	0.585015	0.125000	0.196083
	O1005	O	0.625000	-0.039071	0.347445
	O1006	O	0.625000	-0.000000	0.308292
	O1007	O	0.625000	0.039071	0.347445
	B1008	B	0.625000	-0.039985	0.321083
	B1009	B	0.625000	0.039985	0.321083
	B1010	B	0.625000	0.000000	0.361047
	C1011	C	0.625000	0.125000	0.265614
	C1012	C	0.625000	0.164576	0.279493
	C1013	C	0.625000	0.165660	0.306244
	C1014	C	0.625000	0.125000	0.319095
	C1015	C	0.625000	0.084340	0.306244
	C1016	C	0.625000	0.085424	0.279493
	H1017	H	0.625000	0.125000	0.339761
	H1018	H	0.625000	0.054526	0.269105
	H1019	H	0.625000	0.195474	0.269105
	C1020	C	0.500000	0.000000	0.515614
	C1021	C	0.500000	-0.039576	0.529493
	C1022	C	0.500000	-0.040660	0.556244
	C1023	C	0.500000	0.000000	0.569095
	C1024	C	0.500000	0.040660	0.556244
	C1025	C	0.500000	0.039576	0.529493
	H1026	H	0.500000	0.000000	0.589761
	H1027	H	0.500000	0.070474	0.519105
	H1028	H	0.500000	-0.070474	0.519105
	O1029	O	0.500000	0.125000	0.558292
	O1030	O	0.500000	0.085929	0.597445
	O1031	O	0.500000	0.164071	0.597445
	B1032	B	0.500000	0.085015	0.571083
	B1033	B	0.500000	0.125000	0.611047
	B1034	B	0.500000	0.164985	0.571083
	O1035	O	0.539071	0.000000	0.972445
	O1036	O	0.500000	0.000000	0.933292
	O1037	O	0.460929	-0.000000	0.972445
	B1038	B	0.539985	0.000000	0.946083
	B1039	B	0.460015	0.000000	0.946083
	B1040	B	0.500000	-0.000000	0.986047
	C1041	C	0.500000	0.125000	0.640614
	C1042	C	0.539576	0.125000	0.654493
	C1043	C	0.540660	0.125000	0.681244
	C1044	C	0.500000	0.125000	0.694095
	C1045	C	0.459340	0.125000	0.681244
	C1046	C	0.460424	0.125000	0.654493
	H1047	H	0.500000	0.125000	0.714761
	H1048	H	0.429526	0.125000	0.644105
	H1049	H	0.570474	0.125000	0.644105
	C1050	C	0.625000	0.000000	0.890614
	C1051	C	0.585424	0.000000	0.904493
	C1052	C	0.584340	0.000000	0.931244
	C1053	C	0.625000	0.000000	0.944095
	C1054	C	0.665660	0.000000	0.931244
	C1055	C	0.664576	0.000000	0.904493
	H1056	H	0.625000	0.000000	0.964761
	H1057	H	0.695474	0.000000	0.894105
	H1058	H	0.554526	0.000000	0.894105
	O1059	O	0.625000	0.125000	0.683292
	O1060	O	0.664071	0.125000	0.722445
	O1061	O	0.585929	0.125000	0.722445
	B1062	B	0.664985	0.125000	0.696083
	B1063	B	0.625000	0.125000	0.736047
	B1064	B	0.585015	0.125000	0.696083
	O1065	O	0.625000	-0.039071	0.847445
	O1066	O	0.625000	-0.000000	0.808292
	O1067	O	0.625000	0.039071	0.847445
	B1068	B	0.625000	-0.039985	0.821083
	B1069	B	0.625000	0.039985	0.821083
	B1070	B	0.625000	0.000000	0.861047
	C1071	C	0.625000	0.125000	0.765614
	C1072	C	0.625000	0.164576	0.779493
	C1073	C	0.625000	0.165660	0.806244
	C1074	C	0.625000	0.125000	0.819095
	C1075	C	0.625000	0.084340	0.806244
	C1076	C	0.625000	0.085424	0.779493
	H1077	H	0.625000	0.125000	0.839761
	H1078	H	0.625000	0.054526	0.769105
	H1079	H	0.625000	0.195474	0.769105
	C1080	C	0.500000	0.250000	0.015614
	C1081	C	0.500000	0.210424	0.029493
	C1082	C	0.500000	0.209340	0.056244
	C1083	C	0.500000	0.250000	0.069095
	C1084	C	0.500000	0.290660	0.056244
	C1085	C	0.500000	0.289576	0.029493
	H1086	H	0.500000	0.250000	0.089761
	H1087	H	0.500000	0.320474	0.019105
	H1088	H	0.500000	0.179526	0.019105
	O1089	O	0.500000	0.375000	0.058292
	O1090	O	0.500000	0.335929	0.097445
	O1091	O	0.500000	0.414071	0.097445
	B1092	B	0.500000	0.335015	0.071083
	B1093	B	0.500000	0.375000	0.111047
	B1094	B	0.500000	0.414985	0.071083
	O1095	O	0.539071	0.250000	0.472445
	O1096	O	0.500000	0.250000	0.433292
	O1097	O	0.460929	0.250000	0.472445
	B1098	B	0.539985	0.250000	0.446083
	B1099	B	0.460015	0.250000	0.446083
	B1100	B	0.500000	0.250000	0.486047
	C1101	C	0.500000	0.375000	0.140614
	C1102	C	0.539576	0.375000	0.154493
	C1103	C	0.540660	0.375000	0.181244
	C1104	C	0.500000	0.375000	0.194095
	C1105	C	0.459340	0.375000	0.181244
	C1106	C	0.460424	0.375000	0.154493
	H1107	H	0.500000	0.375000	0.214761
	H1108	H	0.429526	0.375000	0.144105
	H1109	H	0.570474	0.375000	0.144105
	C1110	C	0.625000	0.250000	0.390614
	C1111	C	0.585424	0.250000	0.404493
	C1112	C	0.584340	0.250000	0.431244
	C1113	C	0.625000	0.250000	0.444095
	C1114	C	0.665660	0.250000	0.431244
	C1115	C	0.664576	0.250000	0.404493
	H1116	H	0.625000	0.250000	0.464761
	H1117	H	0.695474	0.250000	0.394105
	H1118	H	0.554526	0.250000	0.394105
	O1119	O	0.625000	0.375000	0.183292
	O1120	O	0.664071	0.375000	0.222445
	O1121	O	0.585929	0.375000	0.222445
	B1122	B	0.664985	0.375000	0.196083
	B1123	B	0.625000	0.375000	0.236047
	B1124	B	0.585015	0.375000	0.196083
	O1125	O	0.625000	0.210929	0.347445
	O1126	O	0.625000	0.250000	0.308292
	O1127	O	0.625000	0.289071	0.347445
	B1128	B	0.625000	0.210015	0.321083
	B1129	B	0.625000	0.289985	0.321083
	B1130	B	0.625000	0.250000	0.361047
	C1131	C	0.625000	0.375000	0.265614
	C1132	C	0.625000	0.414576	0.279493
	C1133	C	0.625000	0.415660	0.306244
	C1134	C	0.625000	0.375000	0.319095
	C1135	C	0.625000	0.334340	0.306244
	C1136	C	0.625000	0.335424	0.279493
	H1137	H	0.625000	0.375000	0.339761
	H1138	H	0.625000	0.304526	0.269105
	H1139	H	0.625000	0.445474	0.269105
	C1140	C	0.500000	0.250000	0.515614
	C1141	C	0.500000	0.210424	0.529493
	C1142	C	0.500000	0.209340	0.556244
	C1143	C	0.500000	0.250000	0.569095
	C1144	C	0.500000	0.290660	0.556244
	C1145	C	0.500000	0.289576	0.529493
	H1146	H	0.500000	0.250000	0.589761
	H1147	H	0.500000	0.320474	0.519105
	H1148	H	0.500000	0.179526	0.519105
	O1149	O	0.500000	0.375000	0.558292
	O1150	O	0.500000	0.335929	0.597445
	O1151	O	0.500000	0.414071	0.597445
	B1152	B	0.500000	0.335015	0.571083
	B1153	B	0.500000	0.375000	0.611047
	B1154	B	0.500000	0.414985	0.571083
	O1155	O	0.539071	0.250000	0.972445
	O1156	O	0.500000	0.250000	0.933292
	O1157	O	0.460929	0.250000	0.972445
	B1158	B	0.539985	0.250000	0.946083
	B1159	B	0.460015	0.250000	0.946083
	B1160	B	0.500000	0.250000	0.986047
	C1161	C	0.500000	0.375000	0.640614
	C1162	C	0.539576	0.375000	0.654493
	C1163	C	0.540660	0.375000	0.681244
	C1164	C	0.500000	0.375000	0.694095
	C1165	C	0.459340	0.375000	0.681244
	C1166	C	0.460424	0.375000	0.654493
	H1167	H	0.500000	0.375000	0.714761
	H1168	H	0.429526	0.375000	0.644105
	H1169	H	0.570474	0.375000	0.644105
	C1170	C	0.625000	0.250000	0.890614
	C1171	C	0.585424	0.250000	0.904493
	C1172	C	0.584340	0.250000	0.931244
	C1173	C	0.625000	0.250000	0.944095
	C1174	C	0.665660	0.250000	0.931244
	C1175	C	0.664576	0.250000	0.904493
	H1176	H	0.625000	0.250000	0.964761
	H1177	H	0.695474	0.250000	0.894105
	H1178	H	0.554526	0.250000	0.894105
	O1179	O	0.625000	0.375000	0.683292
	O1180	O	0.664071	0.375000	0.722445
	O1181	O	0.585929	0.375000	0.722445
	B1182	B	0.664985	0.375000	0.696083
	B1183	B	0.625000	0.375000	0.736047
	B1184	B	0.585015	0.375000	0.696083
	O1185	O	0.625000	0.210929	0.847445
	O1186	O	0.625000	0.250000	0.808292
	O1187	O	0.625000	0.289071	0.847445
	B1188	B	0.625000	0.210015	0.821083
	B1189	B	0.625000	0.289985	0.821083
	B1190	B	0.625000	0.250000	0.861047
	C1191	C	0.625000	0.375000	0.765614
	C1192	C	0.625000	0.414576	0.779493
	C1193	C	0.625000	0.415660	0.806244
	C1194	C	0.625000	0.375000	0.819095
	C1195	C	0.625000	0.334340	0.806244
	C1196	C	0.625000	0.335424	0.779493
	H1197	H	0.625000	0.375000	0.839761
	H1198	H	0.625000	0.304526	0.769105
	H1199	H	0.625000	0.445474	0.769105
	C1200	C	0.500000	0.500000	0.015614
	C1201	C	0.500000	0.460424	0.029493
	C1202	C	0.500000	0.459340	0.056244
	C1203	C	0.500000	0.500000	0.069095
	C1204	C	0.500000	0.540660	0.056244
	C1205	C	0.500000	0.539576	0.029493
	H1206	H	0.500000	0.500000	0.089761
	H1207	H	0.500000	0.570474	0.019105
	H1208	H	0.500000	0.429526	0.019105
	O1209	O	0.500000	0.625000	0.058292
	O1210	O	0.500000	0.585929	0.097445
	O1211	O	0.500000	0.664071	0.097445
	B1212	B	0.500000	0.585015	0.071083
	B1213	B	0.500000	0.625000	0.111047
	B1214	B	0.500000	0.664985	0.071083
	O1215	O	0.539071	0.500000	0.472445
	O1216	O	0.500000	0.500000	0.433292
	O1217	O	0.460929	0.500000	0.472445
	B1218	B	0.539985	0.500000	0.446083
	B1219	B	0.460015	0.500000	0.446083
	B1220	B	0.500000	0.500000	0.486047
	C1221	C	0.500000	0.625000	0.140614
	C1222	C	0.539576	0.625000	0.154493
	C1223	C	0.540660	0.625000	0.181244
	C1224	C	0.500000	0.625000	0.194095
	C1225	C	0.459340	0.625000	0.181244
	C1226	C	0.460424	0.625000	0.154493
	H1227	H	0.500000	0.625000	0.214761
	H1228	H	0.429526	0.625000	0.144105
	H1229	H	0.570474	0.625000	0.144105
	C1230	C	0.625000	0.500000	0.390614
	C1231	C	0.585424	0.500000	0.404493
	C1232	C	0.584340	0.500000	0.431244
	C1233	C	0.625000	0.500000	0.444095
	C1234	C	0.665660	0.500000	0.431244
	C1235	C	0.664576	0.500000	0.404493
	H1236	H	0.625000	0.500000	0.464761
	H1237	H	0.695474	0.500000	0.394105
	H1238	H	0.554526	0.500000	0.394105
	O1239	O	0.625000	0.625000	0.183292
	O1240	O	0.664071	0.625000	0.222445
	O1241	O	0.585929	0.625000	0.222445
	B1242	B	0.664985	0.625000	0.196083
	B1243	B	0.625000	0.625000	0.236047
	B1244	B	0.585015	0.625000	0.196083
	O1245	O	0.625000	0.460929	0.347445
	O1246	O	0.625000	0.500000	0.308292
	O1247	O	0.625000	0.539071	0.347445
	B1248	B	0.625000	0.460015	0.321083
	B1249	B	0.625000	0.539985	0.321083
	B1250	B	0.625000	0.500000	0.361047
	C1251	C	0.625000	0.625000	0.265614
	C1252	C	0.625000	0.664576	0.279493
	C1253	C	0.625000	0.665660	0.306244
	C1254	C	0.625000	0.625000	0.319095
	C1255	C	0.625000	0.584340	0.306244
	C1256	C	0.625000	0.585424	0.279493
	H1257	H	0.625000	0.625000	0.339761
	H1258	H	0.625000	0.554526	0.269105
	H1259	H	0.625000	0.695474	0.269105
	C1260	C	0.500000	0.500000	0.515614
	C1261	C	0.500000	0.460424	0.529493
	C1262	C	0.500000	0.459340	0.556244
	C1263	C	0.500000	0.500000	0.569095
	C1264	C	0.500000	0.540660	0.556244
	C1265	C	0.500000	0.539576	0.529493
	H1266	H	0.500000	0.500000	0.589761
	H1267	H	0.500000	0.570474	0.519105
	H1268	H	0.500000	0.429526	0.519105
	O1269	O	0.500000	0.625000	0.558292
	O1270	O	0.500000	0.585929	0.597445
	O1271	O	0.500000	0.664071	0.597445
	B1272	B	0.500000	0.585015	0.571083
	B1273	B	0.500000	0.625000	0.611047
	B1274	B	0.500000	0.664985	0.571083
	O1275	O	0.539071	0.500000	0.972445
	O1276	O	0.500000	0.500000	0.933292
	O1277	O	0.460929	0.500000	0.972445
	B1278	B	0.539985	0.500000	0.946083
	B1279	B	0.460015	0.500000	0.946083
	B1280	B	0.500000	0.500000	0.986047
	C1281	C	0.500000	0.625000	0.640614
	C1282	C	0.539576	0.625000	0.654493
	C1283	C	0.540660	0.625000	0.681244
	C1284	C	0.500000	0.625000	0.694095
	C1285	C	0.459340	0.625000	0.681244
	C1286	C	0.460424	0.625000	0.654493
	H1287	H	0.500000	0.625000	0.714761
	H1288	H	0.429526	0.625000	0.644105
	H1289	H	0.570474	0.625000	0.644105
	C1290	C	0.625000	0.500000	0.890614
	C1291	C	0.585424	0.500000	0.904493
	C1292	C	0.584340	0.500000	0.931244
	C1293	C	0.625000	0.500000	0.944095
	C1294	C	0.665660	0.500000	0.931244
	C1295	C	0.664576	0.500000	0.904493
	H1296	H	0.625000	0.500000	0.964761
	H1297	H	0.695474	0.500000	0.894105
	H1298	H	0.554526	0.500000	0.894105
	O1299	O	0.625000	0.625000	0.683292
	O1300	O	0.664071	0.625000	0.722445
	O1301	O	0.585929	0.625000	0.722445
	B1302	B	0.664985	0.625000	0.696083
	B1303	B	0.625000	0.625000	0.736047
	B1304	B	0.585015	0.625000	0.696083
	O1305	O	0.625000	0.460929	0.847445
	O1306	O	0.625000	0.500000	0.808292
	O1307	O	0.625000	0.539071	0.847445
	B1308	B	0.625000	0.460015	0.821083
	B1309	B	0.625000	0.539985	0.821083
	B1310	B	0.625000	0.500000	0.861047
	C1311	C	0.625000	0.625000	0.765614
	C1312	C	0.625000	0.664576	0.779493
	C1313	C	0.625000	0.665660	0.806244
	C1314	C	0.625000	0.625000	0.819095
	C1315	C	0.625000	0.584340	0.806244
	C1316	C	0.625000	0.585424	0.779493
	H1317	H	0.625000	0.625000	0.839761
	H1318	H	0.625000	0.554526	0.769105
	H1319	H	0.625000	0.695474	0.769105
	C1320	C	0.500000	0.750000	0.015614
	C1321	C	0.500000	0.710424	0.029493
	C1322	C	0.500000	0.709340	0.056244
	C1323	C	0.500000	0.750000	0.069095
	C1324	C	0.500000	0.790660	0.056244
	C1325	C	0.500000	0.789576	0.029493
	H1326	H	0.500000	0.750000	0.089761
	H1327	H	0.500000	0.820474	0.019105
	H1328	H	0.500000	0.679526	0.019105
	O1329	O	0.500000	0.875000	0.058292
	O1330	O	0.500000	0.835929	0.097445
	O1331	O	0.500000	0.914071	0.097445
	B1332	B	0.500000	0.835015	0.071083
	B1333	B	0.500000	0.875000	0.111047
	B1334	B	0.500000	0.914985	0.071083
	O1335	O	0.539071	0.750000	0.472445
	O1336	O	0.500000	0.750000	0.433292
	O1337	O	0.460929	0.750000	0.472445
	B1338	B	0.539985	0.750000	0.446083
	B1339	B	0.460015	0.750000	0.446083
	B1340	B	0.500000	0.750000	0.486047
	C1341	C	0.500000	0.875000	0.140614
	C1342	C	0.539576	0.875000	0.154493
	C1343	C	0.540660	0.875000	0.181244
	C1344	C	0.500000	0.875000	0.194095
	C1345	C	0.459340	0.875000	0.181244
	C1346	C	0.460424	0.875000	0.154493
	H1347	H	0.500000	0.875000	0.214761
	H1348	H	0.429526	0.875000	0.144105
	H1349	H	0.570474	0.875000	0.144105
	C1350	C	0.625000	0.750000	0.390614
	C1351	C	0.585424	0.750000	0.404493
	C1352	C	0.584340	0.750000	0.431244
	C1353	C	0.625000	0.750000	0.444095
	C1354	C	0.665660	0.750000	0.431244
	C1355	C	0.664576	0.750000	0.404493
	H1356	H	0.625000	0.750000	0.464761
	H1357	H	0.695474	0.750000	0.394105
	H1358	H	0.554526	0.750000	0.394105
	O1359	O	0.625000	0.875000	0.183292
	O1360	O	0.664071	0.875000	0.222445
	O1361	O	0.585929	0.875000	0.222445
	B1362	B	0.664985	0.875000	0.196083
	B1363	B	0.625000	0.875000	0.236047
	B1364	B	0.585015	0.875000	0.196083
	O1365	O	0.625000	0.710929	0.347445
	O1366	O	0.625000	0.750000	0.308292
	O1367	O	0.625000	0.789071	0.347445
	B1368	B	0.625000	0.710015	0.321083
	B1369	B	0.625000	0.789985	0.321083
	B1370	B	0.625000	0.750000	0.361047
	C1371	C	0.625000	0.875000	0.265614
	C1372	C	0.625000	0.914576	0.279493
	C1373	C	0.625000	0.915660	0.306244
	C1374	C	0.625000	0.875000	0.319095
	C1375	C	0.625000	0.834340	0.306244
	C1376	C	0.625000	0.835424	0.279493
	H1377	H	0.625000	0.875000	0.339761
	H1378	H	0.625000	0.804526	0.269105
	H1379	H	0.625000	0.945474	0.269105
	C1380	C	0.500000	0.750000	0.515614
	C1381	C	0.500000	0.710424	0.529493
	C1382	C	0.500000	0.709340	0.556244
	C1383	C	0.500000	0.750000	0.569095
	C1384	C	0.500000	0.790660	0.556244
	C1385	C	0.500000	0.789576	0.529493
	H1386	H	0.500000	0.750000	0.589761
	H1387	H	0.500000	0.820474	0.519105
	H1388	H	0.500000	0.679526	0.519105
	O1389	O	0.500000	0.875000	0.558292
	O1390	O	0.500000	0.835929	0.597445
	O1391	O	0.500000	0.914071	0.597445
	B1392	B	0.500000	0.835015	0.571083
	B1393	B	0.500000	0.875000	0.611047
	B1394	B	0.500000	0.914985	0.571083
	O1395	O	0.539071	0.750000	0.972445
	O1396	O	0.500000	0.750000	0.933292
	O1397	O	0.460929	0.750000	0.972445
	B1398	B	0.539985	0.750000	0.946083
	B1399	B	0.460015	0.750000	0.946083
	B1400	B	0.500000	0.750000	0.986047
	C1401	C	0.500000	0.875000	0.640614
	C1402	C	0.539576	0.875000	0.654493
	C1403	C	0.540660	0.875000	0.681244
	C1404	C	0.500000	0.875000	0.694095
	C1405	C	0.459340	0.875000	0.681244
	C1406	C	0.460424	0.875000	0.654493
	H1407	H	0.500000	0.875000	0.714761
	H1408	H	0.429526	0.875000	0.644105
	H1409	H	0.570474	0.875000	0.644105
	C1410	C	0.625000	0.750000	0.890614
	C1411	C	0.585424	0.750000	0.904493
	C1412	C	0.584340	0.750000	0.931244
	C1413	C	0.625000	0.750000	0.944095
	C1414	C	0.665660	0.750000	0.931244
	C1415	C	0.664576	0.750000	0.904493
	H1416	H	0.625000	0.750000	0.964761
	H1417	H	0.695474	0.750000	0.894105
	H1418	H	0.554526	0.750000	0.894105
	O1419	O	0.625000	0.875000	0.683292
	O1420	O	0.664071	0.875000	0.722445
	O1421	O	0.585929	0.875000	0.722445
	B1422	B	0.664985	0.875000	0.696083
	B1423	B	0.625000	0.875000	0.736047
	B1424	B	0.585015	0.875000	0.696083
	O1425	O	0.625000	0.710929	0.847445
	O1426	O	0.625000	0.750000	0.808292
	O1427	O	0.625000	0.789071	0.847445
	B1428	B	0.625000	0.710015	0.821083
	B1429	B	0.625000	0.789985	0.821083
	B1430	B	0.625000	0.750000	0.861047
	C1431	C	0.625000	0.875000	0.765614
	C1432	C	0.625000	0.914576	0.779493
	C1433	C	0.625000	0.915660	0.806244
	C1434	C	0.625000	0.875000	0.819095
	C1435	C	0.625000	0.834340	0.806244
	C1436	C	0.625000	0.835424	0.779493
	H1437	H	0.625000	0.875000	0.839761
	H1438	H	0.625000	0.804526	0.769105
	H1439	H	0.625000	0.945474	0.769105
	C1440	C	0.750000	0.000000	0.015614
	C1441	C	0.750000	-0.039576	0.029493
	C1442	C	0.750000	-0.040660	0.056244
	C1443	C	0.750000	0.000000	0.069095
	C1444	C	0.750000	0.040660	0.056244
	C1445	C	0.750000	0.039576	0.029493
	H1446	H	0.750000	0.000000	0.089761
	H1447	H	0.750000	0.070474	0.019105
	H1448	H	0.750000	-0.070474	0.019105
	O1449	O	0.750000	0.125000	0.058292
	O1450	O	0.750000	0.085929	0.097445
	O1451	O	0.750000	0.164071	0.097445
	B1452	B	0.750000	0.085015	0.071083
	B1453	B	0.750000	0.125000	0.111047
	B1454	B	0.750000	0.164985	0.071083
	O1455	O	0.789071	0.000000	0.472445
	O1456	O	0.750000	0.000000	0.433292
	O1457	O	0.710929	-0.000000	0.472445
	B1458	B	0.789985	0.000000	0.446083
	B1459	B	0.710015	0.000000	0.446083
	B1460	B	0.750000	-0.000000	0.486047
	C1461	C	0.750000	0.125000	0.140614
	C1462	C	0.789576	0.125000	0.154493
	C1463	C	0.790660	0.125000	0.181244
	C1464	C	0.750000	0.125000	0.194095
	C1465	C	0.709340	0.125000	0.181244
	C1466	C	0.710424	0.125000	0.154493
	H1467	H	0.750000	0.125000	0.214761
	H1468	H	0.679526	0.125000	0.144105
	H1469	H	0.820474	0.125000	0.144105
	C1470	C	0.875000	0.000000	0.390614
	C1471	C	0.835424	0.000000	0.404493
	C1472	C	0.834340	0.000000	0.431244
	C1473	C	0.875000	0.000000	0.444095
	C1474	C	0.915660	0.000000	0.431244
	C1475	C	0.914576	0.000000	0.404493
	H1476	H	0.875000	0.000000	0.464761
	H1477	H	0.945474	0.000000	0.394105
	H1478	H	0.804526	0.000000	0.394105
	O1479	O	0.875000	0.125000	0.183292
	O1480	O	0.914071	0.125000	0.222445
	O1481	O	0.835929	0.125000	0.222445
	B1482	B	0.914985	0.125000	0.196083
	B1483	B	0.875000	0.125000	0.236047
	B1484	B	0.835015	0.125000	0.196083
	O1485	O	0.875000	-0.039071	0.347445
	O1486	O	0.875000	-0.000000	0.308292
	O1487	O	0.875000	0.039071	0.347445
	B1488	B	0.875000	-0.039985	0.321083
	B1489	B	0.875000	0.039985	0.321083
	B1490	B	0.875000	0.000000	0.361047
	C1491	C	0.875000	0.125000	0.265614
	C1492	C	0.875000	0.164576	0.279493
	C1493	C	0.875000	0.165660	0.306244
	C1494	C	0.875000	0.125000	0.319095
	C1495	C	0.875000	0.084340	0.306244
	C1496	C	0.875000	0.085424	0.279493
	H1497	H	0.875000	0.125000	0.339761
	H1498	H	0.875000	0.054526	0.269105
	H1499	H	0.875000	0.195474	0.269105
	C1500	C	0.750000	0.000000	0.515614
	C1501	C	0.750000	-0.039576	0.529493
	C1502	C	0.750000	-0.040660	0.556244
	C1503	C	0.750000	0.000000	0.569095
	C1504	C	0.750000	0.040660	0.556244
	C1505	C	0.750000	0.039576	0.529493
	H1506	H	0.750000	0.000000	0.589761
	H1507	H	0.750000	0.070474	0.519105
	H1508	H	0.750000	-0.070474	0.519105
	O1509	O	0.750000	0.125000	0.558292
	O1510	O	0.750000	0.085929	0.597445
	O1511	O	0.750000	0.164071	0.597445
	B1512	B	0.750000	0.085015	0.571083
	B1513	B	0.750000	0.125000	0.611047
	B1514	B	0.750000	0.164985	0.571083
	O1515	O	0.789071	0.000000	0.972445
	O1516	O	0.750000	0.000000	0.933292
	O1517	O	0.710929	-0.000000	0.972445
	B1518	B	0.789985	0.000000	0.946083
	B1519	B	0.710015	0.000000	0.946083
	B1520	B	0.750000	-0.000000	0.986047
	C1521	C	0.750000	0.125000	0.640614
	C1522	C	0.789576	0.125000	0.654493
	C1523	C	0.790660	0.125000	0.681244
	C1524	C	0.750000	0.125000	0.694095
	C1525	C	0.709340	0.125000	0.681244
	C1526	C	0.710424	0.125000	0.654493
	H1527	H	0.750000	0.125000	0.714761
	H1528	H	0.679526	0.125000	0.644105
	H1529	H	0.820474	0.125000	0.644105
	C1530	C	0.875000	0.000000	0.890614
	C1531	C	0.835424	0.000000	0.904493
	C1532	C	0.834340	0.000000	0.931244
	C1533	C	0.875000	0.000000	0.944095
	C1534	C	0.915660	0.000000	0.931244
	C1535	C	0.914576	0.000000	0.904493
	H1536	H	0.875000	0.000000	0.964761
	H1537	H	0.945474	0.000000	0.894105
	H1538	H	0.804526	0.000000	0.894105
	O1539	O	0.875000	0.125000	0.683292
	O1540	O	0.914071	0.125000	0.722445
	O1541	O	0.835929	0.125000	0.722445
	B1542	B	0.914985	0.125000	0.696083
	B1543	B	0.875000	0.125000	0.736047
	B1544	B	0.835015	0.125000	0.696083
	O1545	O	0.875000	-0.039071	0.847445
	O1546	O	0.875000	-0.000000	0.808292
	O1547	O	0.875000	0.039071	0.847445
	B1548	B	0.875000	-0.039985	0.821083
	B1549	B	0.875000	0.039985	0.821083
	B1550	B	0.875000	0.000000	0.861047
	C1551	C	0.875000	0.125000	0.765614
	C1552	C	0.875000	0.164576	0.779493
	C1553	C	0.875000	0.165660	0.806244
	C1554	C	0.875000	0.125000	0.819095
	C1555	C	0.875000	0.084340	0.806244
	C1556	C	0.875000	0.085424	0.779493
	H1557	H	0.875000	0.125000	0.839761
	H1558	H	0.875000	0.054526	0.769105
	H1559	H	0.875000	0.195474	0.769105
	C1560	C	0.750000	0.250000	0.015614
	C1561	C	0.750000	0.210424	0.029493
	C1562	C	0.750000	0.209340	0.056244
	C1563	C	0.750000	0.250000	0.069095
	C1564	C	0.750000	0.290660	0.056244
	C1565	C	0.750000	0.289576	0.029493
	H1566	H	0.750000	0.250000	0.089761
	H1567	H	0.750000	0.320474	0.019105
	H1568	H	0.750000	0.179526	0.019105
	O1569	O	0.750000	0.375000	0.058292
	O1570	O	0.750000	0.335929	0.097445
	O1571	O	0.750000	0.414071	0.097445
	B1572	B	0.750000	0.335015	0.071083
	B1573	B	0.750000	0.375000	0.111047
	B1574	B	0.750000	0.414985	0.071083
	O1575	O	0.789071	0.250000	0.472445
	O1576	O	0.750000	0.250000	0.433292
	O1577	O	0.710929	0.250000	0.472445
	B1578	B	0.789985	0.250000	0.446083
	B1579	B	0.710015	0.250000	0.446083
	B1580	B	0.750000	0.250000	0.486047
	C1581	C	0.750000	0.375000	0.140614
	C1582	C	0.789576	0.375000	0.154493
	C1583	C	0.790660	0.375000	0.181244
	C1584	C	0.750000	0.375000	0.194095
	C1585	C	0.709340	0.375000	0.181244
	C1586	C	0.710424	0.375000	0.154493
	H1587	H	0.750000	0.375000	0.214761
	H1588	H	0.679526	0.375000	0.144105
	H1589	H	0.820474	0.375000	0.144105
	C1590	C	0.875000	0.250000	0.390614
	C1591	C	0.835424	0.250000	0.404493
	C1592	C	0.834340	0.250000	0.431244
	C1593	C	0.875000	0.250000	0.444095
	C1594	C	0.915660	0.250000	0.431244
	C1595	C	0.914576	0.250000	0.404493
	H1596	H	0.875000	0.250000	0.464761
	H1597	H	0.945474	0.250000	0.394105
	H1598	H	0.804526	0.250000	0.394105
	O1599	O	0.875000	0.375000	0.183292
	O1600	O	0.914071	0.375000	0.222445
	O1601	O	0.835929	0.375000	0.222445
	B1602	B	0.914985	0.375000	0.196083
	B1603	B	0.875000	0.375000	0.236047
	B1604	B	0.835015	0.375000	0.196083
	O1605	O	0.875000	0.210929	0.347445
	O1606	O	0.875000	0.250000	0.308292
	O1607	O	0.875000	0.289071	0.347445
	B1608	B	0.875000	0.210015	0.321083
	B1609	B	0.875000	0.289985	0.321083
	B1610	B	0.875000	0.250000	0.361047
	C1611	C	0.875000	0.375000	0.265614
	C1612	C	0.875000	0.414576	0.279493
	C1613	C	0.875000	0.415660	0.306244
	C1614	C	0.875000	0.375000	0.319095
	C1615	C	0.875000	0.334340	0.306244
	C1616	C	0.875000	0.335424	0.279493
	H1617	H	0.875000	0.375000	0.339761
	H1618	H	0.875000	0.304526	0.269105
	H1619	H	0.875000	0.445474	0.269105
	C1620	C	0.750000	0.250000	0.515614
	C1621	C	0.750000	0.210424	0.529493
	C1622	C	0.750000	0.209340	0.556244
	C1623	C	0.750000	0.250000	0.569095
	C1624	C	0.750000	0.290660	0.556244
	C1625	C	0.750000	0.289576	0.529493
	H1626	H	0.750000	0.250000	0.589761
	H1627	H	0.750000	0.320474	0.519105
	H1628	H	0.750000	0.179526	0.519105
	O1629	O	0.750000	0.375000	0.558292
	O1630	O	0.750000	0.335929	0.597445
	O1631	O	0.750000	0.414071	0.597445
	B1632	B	0.750000	0.335015	0.571083
	B1633	B	0.750000	0.375000	0.611047
	B1634	B	0.750000	0.414985	0.571083
	O1635	O	0.789071	0.250000	0.972445
	O1636	O	0.750000	0.250000	0.933292
	O1637	O	0.710929	0.250000	0.972445
	B1638	B	0.789985	0.250000	0.946083
	B1639	B	0.710015	0.250000	0.946083
	B1640	B	0.750000	0.250000	0.986047
	C1641	C	0.750000	0.375000	0.640614
	C1642	C	0.789576	0.375000	0.654493
	C1643	C	0.790660	0.375000	0.681244
	C1644	C	0.750000	0.375000	0.694095
	C1645	C	0.709340	0.375000	0.681244
	C1646	C	0.710424	0.375000	0.654493
	H1647	H	0.750000	0.375000	0.714761
	H1648	H	0.679526	0.375000	0.644105
	H1649	H	0.820474	0.375000	0.644105
	C1650	C	0.875000	0.250000	0.890614
	C1651	C	0.835424	0.250000	0.904493
	C1652	C	0.834340	0.250000	0.931244
	C1653	C	0.875000	0.250000	0.944095
	C1654	C	0.915660	0.250000	0.931244
	C1655	C	0.914576	0.250000	0.904493
	H1656	H	0.875000	0.250000	0.964761
	H1657	H	0.945474	0.250000	0.894105
	H1658	H	0.804526	0.250000	0.894105
	O1659	O	0.875000	0.375000	0.683292
	O1660	O	0.914071	0.375000	0.722445
	O1661	O	0.835929	0.375000	0.722445
	B1662	B	0.914985	0.375000	0.696083
	B1663	B	0.875000	0.375000	0.736047
	B1664	B	0.835015	0.375000	0.696083
	O1665	O	0.875000	0.210929	0.847445
	O1666	O	0.875000	0.250000	0.808292
	O1667	O	0.875000	0.289071	0.847445
	B1668	B	0.875000	0.210015	0.821083
	B1669	B	0.875000	0.289985	0.821083
	B1670	B	0.875000	0.250000	0.861047
	C1671	C	0.875000	0.375000	0.765614
	C1672	C	0.875000	0.414576	0.779493
	C1673	C	0.875000	0.415660	0.806244
	C1674	C	0.875000	0.375000	0.819095
	C1675	C	0.875000	0.334340	0.806244
	C1676	C	0.875000	0.335424	0.779493
	H1677	H	0.875000	0.375000	0.839761
	H1678	H	0.875000	0.304526	0.769105
	H1679	H	0.875000	0.445474	0.769105
	C1680	C	0.750000	0.500000	0.015614
	C1681	C	0.750000	0.460424	0.029493
	C1682	C	0.750000	0.459340	0.056244
	C1683	C	0.750000	0.500000	0.069095
	C1684	C	0.750000	0.540660	0.056244
	C1685	C	0.750000	0.539576	0.029493
	H1686	H	0.750000	0.500000	0.089761
	H1687	H	0.750000	0.570474	0.019105
	H1688	H	0.750000	0.429526	0.019105
	O1689	O	0.750000	0.625000	0.058292
	O1690	O	0.750000	0.585929	0.097445
	O1691	O	0.750000	0.664071	0.097445
	B1692	B	0.750000	0.585015	0.071083
	B1693	B	0.750000	0.625000	0.111047
	B1694	B	0.750000	0.664985	0.071083
	O1695	O	0.789071	0.500000	0.472445
	O1696	O	0.750000	0.500000	0.433292
	O1697	O	0.710929	0.500000	0.472445
	B1698	B	0.789985	0.500000	0.446083
	B1699	B	0.710015	0.500000	0.446083
	B1700	B	0.750000	0.500000	0.486047
	C1701	C	0.750000	0.625000	0.140614
	C1702	C	0.789576	0.625000	0.154493
	C1703	C	0.790660	0.625000	0.181244
	C1704	C	0.750000	0.625000	0.194095
	C1705	C	0.709340	0.625000	0.181244
	C1706	C	0.710424	0.625000	0.154493
	H1707	H	0.750000	0.625000	0.214761
	H1708	H	0.679526	0.625000	0.144105
	H1709	H	0.820474	0.625000	0.144105
	C1710	C	0.875000	0.500000	0.390614
	C1711	C	0.835424	0.500000	0.404493
	C1712	C	0.834340	0.500000	0.431244
	C1713	C	0.875000	0.500000	0.444095
	C1714	C	0.915660	0.500000	0.431244
	C1715	C	0.914576	0.500000	0.404493
	H1716	H	0.875000	0.500000	0.464761
	H1717	H	0.945474	0.500000	0.394105
	H1718	H	0.804526	0.500000	0.394105
	O1719	O	0.875000	0.625000	0.183292
	O1720	O	0.914071	0.625000	0.222445
	O1721	O	0.835929	0.625000	0.222445
	B1722	B	0.914985	0.625000	0.196083
	B1723	B	0.875000	0.625000	0.236047
	B1724	B	0.835015	0.625000	0.196083
	O1725	O	0.875000	0.460929	0.347445
	O1726	O	0.875000	0.500000	0.308292
	O1727	O	0.875000	0.539071	0.347445
	B1728	B	0.875000	0.460015	0.321083
	B1729	B	0.875000	0.539985	0.321083
	B1730	B	0.875000	0.500000	0.361047
	C1731	C	0.875000	0.625000	0.265614
	C1732	C	0.875000	0.664576	0.279493
	C1733	C	0.875000	0.665660	0.306244
	C1734	C	0.875000	0.625000	0.319095
	C1735	C	0.875000	0.584340	0.306244
	C1736	C	0.875000	0.585424	0.279493
	H1737	H	0.875000	0.625000	0.339761
	H1738	H	0.875000	0.554526	0.269105
	H1739	H	0.875000	0.695474	0.269105
	C1740	C	0.750000	0.500000	0.515614
	C1741	C	0.750000	0.460424	0.529493
	C1742	C	0.750000	0.459340	0.556244
	C1743	C	0.750000	0.500000	0.569095
	C1744	C	0.750000	0.540660	0.556244
	C1745	C	0.750000	0.539576	0.529493
	H1746	H	0.750000	0.500000	0.589761
	H1747	H	0.750000	0.570474	0.519105
	H1748	H	0.750000	0.429526	0.519105
	O1749	O	0.750000	0.625000	0.558292
	O1750	O	0.750000	0.585929	0.597445
	O1751	O	0.750000	0.664071	0.597445
	B1752	B	0.750000	0.585015	0.571083
	B1753	B	0.750000	0.625000	0.611047
	B1754	B	0.750000	0.664985	0.571083
	O1755	O	0.789071	0.500000	0.972445
	O1756	O	0.750000	0.500000	0.933292
	O1757	O	0.710929	0.500000	0.972445
	B1758	B	0.789985	0.500000	0.946083
	B1759	B	0.710015	0.500000	0.946083
	B1760	B	0.750000	0.500000	0.986047
	C1761	C	0.750000	0.625000	0.640614
	C1762	C	0.789576	0.625000	0.654493
	C1763	C	0.790660	0.625000	0.681244
	C1764	C	0.750000	0.625000	0.694095
	C1765	C	0.709340	0.625000	0.681244
	C1766	C	0.710424	0.625000	0.654493
	H1767	H	0.750000	0.625000	0.714761
	H1768	H	0.679526	0.625000	0.644105
	H1769	H	0.820474	0.625000	0.644105
	C1770	C	0.875000	0.500000	0.890614
	C1771	C	0.835424	0.500000	0.904493
	C1772	C	0.834340	0.500000	0.931244
	C1773	C	0.875000	0.500000	0.944095
	C1774	C	0.915660	0.500000	0.931244
	C1775	C	0.914576	0.500000	0.904493
	H1776	H	0.875000	0.500000	0.964761
	H1777	H	0.945474	0.500000	0.894105
	H1778	H	0.804526	0.500000	0.894105
	O1779	O	0.875000	0.625000	0.683292
	O1780	O	0.914071	0.625000	0.722445
	O1781	O	0.835929	0.625000	0.722445
	B1782	B	0.914985	0.625000	0.696083
	B1783	B	0.875000	0.625000	0.736047
	B1784	B	0.835015	0.625000	0.696083
	O1785	O	0.875000	0.460929	0.847445
	O1786	O	0.875000	0.500000	0.808292
	O1787	O	0.875000	0.539071	0.847445
	B1788	B	0.875000	0.460015	0.821083
	B1789	B	0.875000	0.539985	0.821083
	B1790	B	0.875000	0.500000	0.861047
	C1791	C	0.875000	0.625000	0.765614
	C1792	C	0.875000	0.664576	0.779493
	C1793	C	0.875000	0.665660	0.806244
	C1794	C	0.875000	0.625000	0.819095
	C1795	C	0.875000	0.584340	0.806244
	C1796	C	0.875000	0.585424	0.779493
	H1797	H	0.875000	0.625000	0.839761
	H1798	H	0.875000	0.554526	0.769105
	H1799	H	0.875000	0.695474	0.769105
	C1800	C	0.750000	0.750000	0.015614
	C1801	C	0.750000	0.710424	0.029493
	C1802	C	0.750000	0.709340	0.056244
	C1803	C	0.750000	0.750000	0.069095
	C1804	C	0.750000	0.790660	0.056244
	C1805	C	0.750000	0.789576	0.029493
	H1806	H	0.750000	0.750000	0.089761
	H1807	H	0.750000	0.820474	0.019105
	H1808	H	0.750000	0.679526	0.019105
	O1809	O	0.750000	0.875000	0.058292
	O1810	O	0.750000	0.835929	0.097445
	O1811	O	0.750000	0.914071	0.097445
	B1812	B	0.750000	0.835015	0.071083
	B1813	B	0.750000	0.875000	0.111047
	B1814	B	0.750000	0.914985	0.071083
	O1815	O	0.789071	0.750000	0.472445
	O1816	O	0.750000	0.750000	0.433292
	O1817	O	0.710929	0.750000	0.472445
	B1818	B	0.789985	0.750000	0.446083
	B1819	B	0.710015	0.750000	0.446083
	B1820	B	0.750000	0.750000	0.486047
	C1821	C	0.750000	0.875000	0.140614
	C1822	C	0.789576	0.875000	0.154493
	C1823	C	0.790660	0.875000	0.181244
	C1824	C	0.750000	0.875000	0.194095
	C1825	C	0.709340	0.875000	0.181244
	C1826	C	0.710424	0.875000	0.154493
	H1827	H	0.750000	0.875000	0.214761
	H1828	H	0.679526	0.875000	0.144105
	H1829	H	0.820474	0.875000	0.144105
	C1830	C	0.875000	0.750000	0.390614
	C1831	C	0.835424	0.750000	0.404493
	C1832	C	0.834340	0.750000	0.431244
	C1833	C	0.875000	0.750000	0.444095
	C1834	C	0.915660	0.750000	0.431244
	C1835	C	0.914576	0.750000	0.404493
	H1836	H	0.875000	0.750000	0.464761
	H1837	H	0.945474	0.750000	0.394105
	H1838	H	0.804526	0.750000	0.394105
	O1839	O	0.875000	0.875000	0.183292
	O1840	O	0.914071	0.875000	0.222445
	O1841	O	0.835929	0.875000	0.222445
	B1842	B	0.914985	0.875000	0.196083
	B1843	B	0.875000	0.875000	0.236047
	B1844	B	0.835015	0.875000	0.196083
	O1845	O	0.875000	0.710929	0.347445
	O1846	O	0.875000	0.750000	0.308292
	O1847	O	0.875000	0.789071	0.347445
	B1848	B	0.875000	0.710015	0.321083
	B1849	B	0.875000	0.789985	0.321083
	B1850	B	0.875000	0.750000	0.361047
	C1851	C	0.875000	0.875000	0.265614
	C1852	C	0.875000	0.914576	0.279493
	C1853	C	0.875000	0.915660	0.306244
	C1854	C	0.875000	0.875000	0.319095
	C1855	C	0.875000	0.834340	0.306244
	C1856	C	0.875000	0.835424	0.279493
	H1857	H	0.875000	0.875000	0.339761
	H1858	H	0.875000	0.804526	0.269105
	H1859	H	0.875000	0.945474	0.269105
	C1860	C	0.750000	0.750000	0.515614
	C1861	C	0.750000	0.710424	0.529493
	C1862	C	0.750000	0.709340	0.556244
	C1863	C	0.750000	0.750000	0.569095
	C1864	C	0.750000	0.790660	0.556244
	C1865	C	0.750000	0.789576	0.529493
	H1866	H	0.750000	0.750000	0.589761
	H1867	H	0.750000	0.820474	0.519105
	H1868	H	0.750000	0.679526	0.519105
	O1869	O	0.750000	0.875000	0.558292
	O1870	O	0.750000	0.835929	0.597445
	O1871	O	0.750000	0.914071	0.597445
	B1872	B	0.750000	0.835015	0.571083
	B1873	B	0.750000	0.875000	0.611047
	B1874	B	0.750000	0.914985	0.571083
	O1875	O	0.789071	0.750000	0.972445
	O1876	O	0.750000	0.750000	0.933292
	O1877	O	0.710929	0.750000	0.972445
	B1878	B	0.789985	0.750000	0.946083
	B1879	B	0.710015	0.750000	0.946083
	B1880	B	0.750000	0.750000	0.986047
	C1881	C	0.750000	0.875000	0.640614
	C1882	C	0.789576	0.875000	0.654493
	C1883	C	0.790660	0.875000	0.681244
	C1884	C	0.750000	0.875000	0.694095
	C1885	C	0.709340	0.875000	0.681244
	C1886	C	0.710424	0.875000	0.654493
	H1887	H	0.750000	0.875000	0.714761
	H1888	H	0.679526	0.875000	0.644105
	H1889	H	0.820474	0.875000	0.644105
	C1890	C	0.875000	0.750000	0.890614
	C1891	C	0.835424	0.750000	0.904493
	C1892	C	0.834340	0.750000	0.931244
	C1893	C	0.875000	0.750000	0.944095
	C1894	C	0.915660	0.750000	0.931244
	C1895	C	0.914576	0.750000	0.904493
	H1896	H	0.875000	0.750000	0.964761
	H1897	H	0.945474	0.750000	0.894105
	H1898	H	0.804526	0.750000	0.894105
	O1899	O	0.875000	0.875000	0.683292
	O1900	O	0.914071	0.875000	0.722445
	O1901	O	0.835929	0.875000	0.722445
	B1902	B	0.914985	0.875000	0.696083
	B1903	B	0.875000	0.875000	0.736047
	B1904	B	0.835015	0.875000	0.696083
	O1905	O	0.875000	0.710929	0.847445
	O1906	O	0.875000	0.750000	0.808292
	O1907	O	0.875000	0.789071	0.847445
	B1908	B	0.875000	0.710015	0.821083
	B1909	B	0.875000	0.789985	0.821083
	B1910	B	0.875000	0.750000	0.861047
	C1911	C	0.875000	0.875000	0.765614
	C1912	C	0.875000	0.914576	0.779493
	C1913	C	0.875000	0.915660	0.806244
	C1914	C	0.875000	0.875000	0.819095
	C1915	C	0.875000	0.834340	0.806244
	C1916	C	0.875000	0.835424	0.779493
	H1917	H	0.875000	0.875000	0.839761
	H1918	H	0.875000	0.804526	0.769105
	H1919	H	0.875000	0.945474	0.769105
	N1920	N	0.490323	0.244502	0.819579
	N1921	N	0.509448	0.264154	0.833138
	N1922	N	0.243315	0.005078	0.338454
	N1923	N	0.263066	-0.003627	0.321734
	N1924	N	0.067036	0.969599	0.725639
	N1925	N	0.088634	0.967555	0.708977
	N1926	N	0.495137	0.285917	0.747863
	N1927	N	0.528111	0.271211	0.747349
	N1928	N	0.132522	0.728527	0.625967
	N1929	N	0.100406	0.738551	0.618369
	N1930	N	0.009892	0.653181	0.369932
	N1931	N	0.012134	0.625516	0.356564
	N1932	N	0.377519	0.630165	0.566915
	N1933	N	0.353382	0.603885	0.570095
	N1934	N	0.884197	0.274343	0.706730
	N1935	N	0.860851	0.252778	0.716632
	N1936	N	0.484420	0.363637	0.454293
	N1937	N	0.473605	0.347282	0.436774
	N1938	N	0.843705	0.641212	0.512965
	N1939	N	0.839451	0.668349	0.526524
	N1940	N	0.613744	0.932306	0.083618
	N1941	N	0.598906	0.941439	0.101900
	N1942	N	0.224025	0.830713	0.340815
	N1943	N	0.211561	0.861906	0.333141
	N1944	N	0.486597	0.062321	0.344414
	N1945	N	0.464141	0.090481	0.345900
	N1946	N	0.620207	0.383421	0.579274
	N1947	N	0.640981	0.406404	0.589995
	N1948	N	0.390181	0.476770	0.038753
	N1949	N	0.399282	0.511327	0.035630
	N1950	N	0.593333	0.368979	0.907882
	N1951	N	0.568405	0.346820	0.915900
	N1952	N	0.238105	0.380684	0.963755
	N1953	N	0.232236	0.370924	0.943950
	N1954	N	0.403337	0.515746	0.647562
	N1955	N	0.392192	0.507766	0.628253
	N1956	N	0.801300	0.603951	0.443153
	N1957	N	0.824778	0.628648	0.450104
	N1958	N	0.748377	0.626208	0.361553
	N1959	N	0.753554	0.644443	0.379321
	C1960	C	0.967291	0.979623	0.664530
	O1961	O	0.929008	0.978634	0.664473
	O1962	O	1.005541	0.980645	0.664587
	C1963	C	0.493950	0.774624	0.214788
	O1964	O	0.456162	0.772151	0.218006
	O1965	O	0.531738	0.777130	0.211588
	C1966	C	0.748773	0.985756	0.183728
	O1967	O	0.713886	0.973061	0.189060
	O1968	O	0.783692	0.998451	0.178396
	C1969	C	0.354569	0.133215	0.498778
	O1970	O	0.324826	0.136545	0.512566
	O1971	O	0.384311	0.129884	0.485010
	C1972	C	0.041283	0.878888	0.410513
	O1973	O	0.048439	0.852509	0.425995
	O1974	O	0.034128	0.905234	0.395012
	C1975	C	0.628055	0.896859	0.912795
	O1976	O	0.593894	0.909751	0.919422
	O1977	O	0.662216	0.883966	0.906168
	C1978	C	0.106011	0.010651	0.028146
	O1979	O	0.110364	-0.020840	0.040448
	O1980	O	0.101659	0.042141	0.015844
	C1981	C	0.131962	0.998583	0.540597
	O1982	O	0.135622	0.982987	0.560669
	O1983	O	0.128269	1.014213	0.520526
	C1984	C	0.474627	0.866622	0.452599
	O1985	O	0.472484	0.829163	0.448143
	O1986	O	0.476770	0.904047	0.457074
	C1987	C	0.104000	0.367363	0.411237
	O1988	O	0.136743	0.372474	0.400173
	O1989	O	0.071257	0.362252	0.422301
	C1990	C	0.896265	0.368946	0.999461
	O1991	O	0.866325	0.354206	0.988625
	O1992	O	0.926205	0.383718	1.010296
	C1993	C	0.878591	0.768161	0.607991
	O1994	O	0.874074	0.806048	0.606315
	O1995	O	0.883141	0.730274	0.609648
	C1996	C	0.734264	0.495632	0.679688
	O1997	O	0.771063	0.495467	0.685744
	O1998	O	0.697432	0.495763	0.673652
	C1999	C	0.893660	0.863819	0.504301
	O2000	O	0.855674	0.860291	0.502492
	O2001	O	0.931646	0.867347	0.506091
	C2002	C	0.014739	0.348139	0.773971
	O2003	O	0.006034	0.384147	0.779531
	O2004	O	0.023412	0.312131	0.768429
	C2005	C	0.361658	0.374518	0.992110
	O2006	O	0.333235	0.362087	0.979180
	O2007	O	0.390115	0.386949	1.005041
	C2008	C	0.011871	0.254031	0.245752
	O2009	O	-0.025918	0.257296	0.248646
	O2010	O	0.049692	0.250767	0.242857
	C2011	C	0.122564	0.119827	0.397221
	O2012	O	0.158770	0.113035	0.391242
	O2013	O	0.086326	0.126653	0.403201
	C2014	C	0.388598	0.133742	0.404800
	O2015	O	0.421869	0.116299	0.400478
	O2016	O	0.355360	0.151153	0.409142
	C2017	C	0.611304	0.497445	0.208427
	O2018	O	0.599368	0.462262	0.203114
	O2019	O	0.623208	0.532628	0.213740
	C2020	C	0.748509	0.882713	0.365990
	O2021	O	0.755466	0.846310	0.360449
	O2022	O	0.741584	0.919116	0.371551
	C2023	C	0.726185	0.487289	0.755023
	O2024	O	0.705511	0.490850	0.736532
	O2025	O	0.746860	0.483761	0.773514
	C2026	C	0.019718	0.656413	0.878784
	O2027	O	0.006826	0.625714	0.889658
	O2028	O	0.032644	0.687111	0.867892
	C2029	C	0.870117	0.370067	0.485143
	O2030	O	0.902959	0.354569	0.478135
	O2031	O	0.837275	0.385564	0.492151
	C2032	C	0.374419	0.625483	0.402839
	O2033	O	0.409965	0.616778	0.396326
	O2034	O	0.338906	0.634221	0.409352
	C2035	C	0.362878	0.288951	0.089465
	O2036	O	0.385037	0.317111	0.097215
	O2037	O	0.340687	0.260791	0.081714
	C2038	C	0.259604	0.611271	0.845440
	O2039	O	0.281697	0.639992	0.852581
	O2040	O	0.237511	0.582584	0.838299
	C2041	C	0.128038	0.366769	0.898094
	O2042	O	0.159924	0.349062	0.891372
	O2043	O	0.096152	0.384443	0.904816
	C2044	C	0.098032	0.114683	0.975219
	O2045	O	0.059848	0.113035	0.974000
	O2046	O	0.136215	0.116332	0.976419
	C2047	C	0.744090	0.121905	0.776808
	O2048	O	0.741057	0.136380	0.797204
	O2049	O	0.747124	0.107429	0.756432
	C2050	C	0.389126	0.998352	0.037744
	O2051	O	0.390873	0.969764	0.052407
	O2052	O	0.387378	1.026941	0.023061
	C2053	C	0.772679	0.362285	0.279820
	O2054	O	0.782967	0.337719	0.295702
	O2055	O	0.762358	0.386883	0.263957
	C2056	C	0.886835	0.883999	0.412513
	O2057	O	0.918424	0.884757	0.400059
	O2058	O	0.855213	0.883273	0.424986
	C2059	C	0.642465	0.098592	0.531209
	O2060	O	0.628681	0.098823	0.510585
	O2061	O	0.656281	0.098394	0.551833
	C2062	C	0.865336	0.493983	0.681897
	O2063	O	0.868963	0.474396	0.700769
	O2064	O	0.861741	0.513569	0.663025
	C2065	C	0.743662	0.754510	0.665177
	O2066	O	0.779570	0.743925	0.669767
	O2067	O	0.707720	0.765095	0.660588
	C2068	C	0.740199	0.385433	0.358259
	O2069	O	0.743925	0.422990	0.361896
	O2070	O	0.736473	0.347875	0.354603
	C2071	C	0.008837	0.621460	0.943798
	O2072	O	0.016157	0.658952	0.942350
	O2073	O	0.001517	0.583969	0.945245
	C2074	C	0.500116	0.529232	0.310175
	O2075	O	0.518285	0.529859	0.290732
	O2076	O	0.481947	0.528638	0.329637
	C2077	C	0.734165	0.133512	0.298406
	O2078	O	0.730703	0.171432	0.296102
	O2079	O	0.737627	0.095624	0.300710
	C2080	C	0.729087	0.890791	0.782255
	O2081	O	0.737463	0.924293	0.772733
	O2082	O	0.720679	0.857257	0.791757
	C2083	C	0.895111	0.134798	0.042809
	O2084	O	0.896199	0.129225	0.020947
	O2085	O	0.894023	0.140403	0.064671
	C2086	C	0.879811	0.250668	0.209341
	O2087	O	0.875854	0.214759	0.216654
	O2088	O	0.883768	0.286577	0.202029
	C2089	C	0.739012	0.631880	0.291017
	O2090	O	0.740727	0.668910	0.285533
	O2091	O	0.737265	0.594817	0.296502
	C2092	C	0.775778	0.241040	0.170988
	O2093	O	0.743365	0.240710	0.182738
	O2094	O	0.808225	0.241402	0.159258
	C2095	C	0.371122	0.988098	0.528238
	O2096	O	0.366802	1.023017	0.519554
	O2097	O	0.375474	0.953145	0.536922
	C2098	C	0.368484	0.119300	0.984779
	O2099	O	0.331256	0.113628	0.988740
	O2100	O	0.405679	0.125004	0.980799
	C2101	C	0.004122	0.488179	0.221415
	O2102	O	-0.033930	0.485509	0.223281
	O2103	O	0.042141	0.490883	0.219549
	C2104	C	0.493818	0.675570	0.273441
	O2105	O	0.491015	0.705115	0.259463
	O2106	O	0.496621	0.646026	0.287399
	C2107	C	0.983547	0.877074	0.340853
	O2108	O	0.986317	0.844166	0.352032
	O2109	O	0.980810	0.909982	0.329656
	C2110	C	0.255054	0.362944	0.799812
	O2111	O	0.264022	0.349425	0.779798
	O2112	O	0.246085	0.376464	0.819827
	C2113	C	0.862203	0.622812	0.903921
	O2114	O	0.877536	0.623834	0.924164
	O2115	O	0.846903	0.621823	0.883678
	C2116	C	0.252284	0.889835	0.798213
	O2117	O	0.254526	0.851651	0.797432
	O2118	O	0.250042	0.928052	0.798994
	C2119	C	0.603720	0.654005	0.994948
	O2120	O	0.637848	0.665283	0.987368
	O2121	O	0.569559	0.642761	1.002527
	C2122	C	0.138524	0.612359	0.899770
	O2123	O	0.169123	0.607479	0.886802
	O2124	O	0.107924	0.617272	0.912757
	C2125	C	0.631649	0.860356	0.395393
	O2126	O	0.597059	0.868039	0.403734
	O2127	O	0.666272	0.852674	0.387033
	C2128	C	0.381937	0.626307	0.902569
	O2129	O	0.414944	0.629671	0.891524
	O2130	O	0.348963	0.622944	0.913595
	C2131	C	0.881460	0.149405	0.957623
	O2132	O	0.918061	0.158407	0.961470
	O2133	O	0.844859	0.140403	0.953776
	C2134	C	0.503018	0.467769	0.252531
	O2135	O	0.464768	0.469088	0.253407
	O2136	O	0.541235	0.466417	0.251655
	C2137	C	0.754906	0.867743	0.288409
	O2138	O	0.759753	0.846046	0.270413
	O2139	O	0.750026	0.889407	0.306404
	C2140	C	0.900914	0.456689	0.101862
	O2141	O	0.902069	0.418440	0.102490
	O2142	O	0.899760	0.494939	0.101252
	C2143	C	0.255911	0.509777	0.170170
	O2144	O	0.292149	0.512646	0.163238
	O2145	O	0.219705	0.506876	0.177101
	C2146	C	0.380355	0.380025	0.405219
	O2147	O	0.350117	0.388103	0.417959
	O2148	O	0.410559	0.371913	0.392460
	C2149	C	0.124147	0.617075	0.572913
	O2150	O	0.088304	0.606226	0.568400
	O2151	O	0.160023	0.627956	0.577427
	C2152	C	0.471495	0.877371	0.788234
	O2153	O	0.474363	0.841528	0.795832
	O2154	O	0.468659	0.913181	0.780636
	C2155	C	0.879943	0.743728	0.039077
	O2156	O	0.886868	0.715238	0.053302
	O2157	O	0.873018	0.772184	0.024870
	C2158	C	0.624263	0.531903	0.054482
	O2159	O	0.621460	0.569262	0.059091
	O2160	O	0.627066	0.494576	0.049874
	C2161	C	0.607842	0.229828	0.543663
	O2162	O	0.614635	0.267287	0.541435
	O2163	O	0.601049	0.192337	0.545891
	C2164	C	0.132127	0.896760	0.896361
	O2165	O	0.095064	0.888219	0.893924
	O2166	O	0.169189	0.905300	0.898799
	C2167	C	0.281729	0.256570	0.215607
	O2168	O	0.248327	0.252119	0.226099
	O2169	O	0.315099	0.260989	0.205114
	C2170	C	0.104264	0.621064	0.426357
	O2171	O	0.141722	0.615228	0.429309
	O2172	O	0.066772	0.626901	0.423386
	C2173	C	0.384872	0.253932	0.535151
	O2174	O	0.384344	0.281268	0.519688
	O2175	O	0.385433	0.226597	0.550633
	C2176	C	0.151153	0.265308	0.640250
	O2177	O	0.138754	0.257560	0.619836
	O2178	O	0.163551	0.273057	0.660683
	C2179	C	0.280674	0.239655	0.145566
	O2180	O	0.253042	0.234247	0.160553
	O2181	O	0.308274	0.245062	0.130579
	C2182	C	0.512547	0.764534	0.683649
	O2183	O	0.475089	0.772118	0.684697
	O2184	O	0.550039	0.756983	0.682602
	C2185	C	0.757610	0.753422	0.733466
	O2186	O	0.790089	0.770667	0.739598
	O2187	O	0.725163	0.736144	0.727334
	C2188	C	0.992549	0.504798	0.649905
	O2189	O	1.025886	0.502061	0.639145
	O2190	O	0.959212	0.507502	0.660664
	C2191	C	0.234247	0.130082	0.967621
	O2192	O	0.230290	0.093217	0.962098
	O2193	O	0.238171	0.166947	0.973143
	C2194	C	0.856564	0.982228	0.051474
	O2195	O	0.857653	1.019786	0.047246
	O2196	O	0.855443	0.944671	0.055701
	C2197	C	0.246282	0.502028	0.650724
	O2198	O	0.208824	0.496951	0.647334
	O2199	O	0.283774	0.507106	0.654113
	C2200	C	0.633199	0.081248	0.087656
	O2201	O	0.607446	0.052989	0.086951
	O2202	O	0.658985	0.109539	0.088360
	C2203	C	0.731692	0.634749	0.771571
	O2204	O	0.731824	0.672603	0.768277
	O2205	O	0.731593	0.596895	0.774885
	C2206	C	0.001945	0.420913	0.843726
	O2207	O	-0.019290	0.451941	0.847839
	O2208	O	0.023181	0.389851	0.839632
	C2209	C	0.996407	0.767963	0.833233
	O2210	O	1.033305	0.773206	0.838299
	O2211	O	0.959509	0.762721	0.828168
	C2212	C	0.756489	0.501633	0.147242
	O2213	O	0.788078	0.509514	0.135625
	O2214	O	0.724899	0.493719	0.158858
	C2215	C	0.359350	0.256373	0.019367
	O2216	O	0.355921	0.290105	0.029631
	O2217	O	0.362779	0.222673	0.009103
	C2218	C	0.061529	0.001451	0.224119
	O2219	O	0.090744	0.025720	0.221377
	O2220	O	0.032314	-0.022851	0.226842
	C2221	C	0.498302	0.996110	0.668777
	O2222	O	0.527023	0.986515	0.682278
	O2223	O	0.469549	1.005706	0.655256
	C2224	C	0.513470	0.631023	0.927497
	O2225	O	0.529298	0.609194	0.911805
	O2226	O	0.497676	0.652818	0.943207
	C2227	C	0.239160	0.004419	0.651752
	O2228	O	0.200976	0.003264	0.650152
	O2229	O	0.277311	0.005573	0.653352
	C2230	C	0.634089	0.970424	0.523439
	O2231	O	0.625054	0.999902	0.510337
	O2232	O	0.643124	0.940945	0.536522
	C2233	C	0.619449	0.517988	0.548900
	O2234	O	0.610051	0.481156	0.546253
	O2235	O	0.628846	0.554787	0.551547
	C2236	C	0.247074	0.625945	0.423958
	O2237	O	0.250536	0.632440	0.445648
	O2238	O	0.243579	0.619416	0.402268
	C2239	C	0.119498	0.389884	0.986873
	O2240	O	0.083622	0.400106	0.981903
	O2241	O	0.155373	0.379662	0.991825
	C2242	C	0.121245	0.471528	0.524106
	O2243	O	0.128269	0.434729	0.519516
	O2244	O	0.114255	0.508294	0.528676
	C2245	C	0.873942	0.530914	0.605896
	O2246	O	0.877635	0.568603	0.602659
	O2247	O	0.870282	0.493224	0.609152
	C2248	C	0.622944	0.030204	0.595784
	O2249	O	0.623603	0.048900	0.615075
	O2250	O	0.622317	0.011508	0.576512
	C2251	C	0.749267	0.756126	0.232822
	O2252	O	0.712204	0.759720	0.237963
	O2253	O	0.786330	0.752532	0.227680
	C2254	C	0.219672	0.856235	0.424358
	O2255	O	0.209286	0.860422	0.403220
	O2256	O	0.230059	0.852047	0.445496
	C2257	C	0.671844	0.652621	0.478631
	O2258	O	0.641310	0.666700	0.489200
	O2259	O	0.702345	0.638574	0.468043
	C2260	C	0.638343	0.397798	0.031669
	O2261	O	0.653742	0.405481	0.011921
	O2262	O	0.622977	0.390148	0.051436
	C2263	C	0.754279	0.860851	0.871796
	O2264	O	0.762490	0.839913	0.889658
	O2265	O	0.746069	0.881823	0.853914
	C2266	C	0.502259	0.354074	0.301929
	O2267	O	0.509547	0.388466	0.293207
	O2268	O	0.494939	0.319650	0.310651
	C2269	C	0.117420	0.262967	0.015501
	O2270	O	0.124543	0.227982	0.023518
	O2271	O	0.110331	0.297920	0.007503
	C2272	C	0.368055	0.760874	0.096492
	O2273	O	0.374221	0.724042	0.091674
	O2274	O	0.361889	0.797739	0.101310
	C2275	C	0.872887	0.969138	0.603916
	O2276	O	0.872359	1.006365	0.598774
	O2277	O	0.873447	0.931910	0.609057
	C2278	C	0.013420	0.262901	0.669824
	O2279	O	-0.009002	0.261912	0.687724
	O2280	O	0.035843	0.263924	0.651904
	C2281	C	0.232433	0.386554	0.410608
	O2282	O	0.234939	0.420517	0.400535
	O2283	O	0.229894	0.352591	0.420701
	C2284	C	0.377189	0.757972	0.525134
	O2285	O	0.376991	0.795793	0.528428
	O2286	O	0.377420	0.720118	0.521840
	C2287	C	0.239556	0.772250	0.710938
	O2288	O	0.270518	0.769151	0.698046
	O2289	O	0.208626	0.775350	0.723811
	C2290	C	0.336071	0.618657	0.489333
	O2291	O	0.302833	0.632968	0.496512
	O2292	O	0.369308	0.604347	0.482135
	C2293	C	0.628846	0.730670	0.057320
	O2294	O	0.638607	0.760511	0.069946
	O2295	O	0.619053	0.700795	0.044675
	C2296	C	0.494708	0.837967	0.852600
	O2297	O	0.496522	0.872887	0.843631
	O2298	O	0.492928	0.803015	0.861588
	C2299	C	0.996506	0.881724	0.786120
	O2300	O	1.000859	0.856235	0.802402
	O2301	O	0.992153	0.907245	0.769819
	C2302	C	0.092162	0.998287	0.625910
	O2303	O	0.081709	1.031129	0.635527
	O2304	O	0.102582	0.965412	0.616313
	C2305	C	0.374716	0.726680	0.020376
	O2306	O	0.384806	0.763413	0.018205
	O2307	O	0.364626	0.689947	0.022547
	C2308	C	0.263363	0.246513	0.727544
	O2309	O	0.300261	0.241501	0.722402
	O2310	O	0.226465	0.251525	0.732685
	C2311	C	0.691958	0.279784	0.229603
	O2312	O	0.656116	0.282653	0.222043
	O2313	O	0.727834	0.276915	0.237182
	C2314	C	0.985559	0.487553	0.759003
	O2315	O	1.023611	0.491279	0.760165
	O2316	O	0.947540	0.483827	0.757841
	C2317	C	0.882053	0.475155	0.537379
	O2318	O	0.884559	0.439708	0.529171
	O2319	O	0.879547	0.510602	0.545586
	C2320	C	0.760412	0.146635	0.393108
	O2321	O	0.774261	0.120355	0.407047
	O2322	O	0.746530	0.172882	0.379168
	C2323	C	0.236522	0.365055	0.274221
	O2324	O	0.231741	0.402975	0.273003
	O2325	O	0.241303	0.327135	0.275421
	C2326	C	0.265078	0.378607	0.882745
	O2327	O	0.239457	0.404986	0.888915
	O2328	O	0.290665	0.352228	0.876556
	C2329	C	0.621130	0.370924	0.499331
	O2330	O	0.635309	0.366275	0.519688
	O2331	O	0.606985	0.375540	0.478973
	C2332	C	0.113793	0.876151	0.044770
	O2333	O	0.106605	0.881064	0.023233
	O2334	O	0.120948	0.871238	0.066289
	C2335	C	0.009694	0.137337	0.279020
	O2336	O	0.000264	0.103670	0.270032
	O2337	O	0.019092	0.171036	0.288009
	C2338	C	0.234148	0.997990	0.213950
	O2339	O	0.267452	1.001782	0.203248
	O2340	O	0.200877	0.994231	0.224633
	C2341	C	0.507106	0.995220	0.144138
	O2342	O	0.542356	0.988328	0.136539
	O2343	O	0.471824	1.002079	0.151755
	C2344	C	0.011871	0.384443	0.276335
	O2345	O	0.021862	0.347513	0.277211
	O2346	O	0.001880	0.421374	0.275440
	C2347	C	0.112771	0.130577	0.904074
	O2348	O	0.148317	0.129456	0.912281
	O2349	O	0.077258	0.131698	0.895885
	C2350	C	0.868501	0.260791	0.523325
	O2351	O	0.858906	0.297821	0.523725
	O2352	O	0.878063	0.223728	0.522944
	C2353	C	0.135721	0.881031	0.972172
	O2354	O	0.172619	0.877701	0.977733
	O2355	O	0.098823	0.884394	0.966630
	C2356	C	0.137963	0.498599	0.212579
	O2357	O	0.137534	0.536354	0.209056
	O2358	O	0.138359	0.460811	0.216121
	C2359	C	0.994791	0.215353	0.745806
	O2360	O	0.956673	0.218156	0.744663
	O2361	O	1.032909	0.212517	0.746949
	C2362	C	0.140436	0.751015	0.050103
	O2363	O	0.135985	0.718173	0.061148
	O2364	O	0.144888	0.783890	0.039058
	C2365	C	0.356910	0.870644	0.412894
	O2366	O	0.391368	0.866622	0.422206
	O2367	O	0.322419	0.874634	0.403563
	C2368	C	0.389686	0.379992	0.908987
	O2369	O	0.403931	0.370166	0.928697
	O2370	O	0.375441	0.389818	0.889258
	C2371	C	0.231444	0.414186	0.336016
	O2372	O	0.235533	0.376200	0.337388
	O2373	O	0.227322	0.452172	0.334664
	C2374	C	0.817985	0.116134	0.481392
	O2375	O	0.847563	0.091898	0.482382
	O2376	O	0.788374	0.140337	0.480402
	C2377	C	0.370396	0.623933	0.069793
	O2378	O	0.333795	0.615855	0.074306
	O2379	O	0.406965	0.631979	0.065280
	C2380	C	0.983316	0.005111	0.163752
	O2381	O	1.020610	0.011046	0.167351
	O2382	O	0.946023	-0.000824	0.160134
	C2383	C	0.185215	0.513240	0.718936
	O2384	O	0.216375	0.494510	0.725887
	O2385	O	0.154087	0.531969	0.711985
	C2386	C	0.009365	0.881724	0.867225
	O2387	O	0.016751	0.908334	0.851915
	O2388	O	0.002011	0.855114	0.882536
	C2389	C	0.860455	0.371682	0.909901
	O2390	O	0.895507	0.362746	0.917175
	O2391	O	0.825437	0.380585	0.902645
	C2392	C	0.890857	0.637881	0.989044
	O2393	O	0.928448	0.641640	0.992624
	O2394	O	0.853267	0.634155	0.985464
	C2395	C	0.854718	0.505557	0.026051
	O2396	O	0.852344	0.467604	0.023575
	O2397	O	0.857092	0.543543	0.028508
	C2398	C	0.128104	0.230356	0.096130
	O2399	O	0.109704	0.257263	0.084514
	O2400	O	0.146470	0.203482	0.107765
	C2401	C	0.860225	0.996572	0.531609
	O2402	O	0.863555	0.959410	0.536617
	O2403	O	0.856894	1.033701	0.526600
	C2404	C	0.987141	0.626736	0.794937
	O2405	O	0.986218	0.620834	0.816761
	O2406	O	0.988065	0.632638	0.773095
	C2407	C	0.090283	0.623340	0.496817
	O2408	O	0.103011	0.643849	0.513994
	O2409	O	0.077555	0.602863	0.479659
	C2410	C	0.098163	0.743101	0.125913
	O2411	O	0.100010	0.722327	0.144442
	O2412	O	0.096317	0.763875	0.107365
	C2413	C	0.755499	0.762885	0.163600
	O2414	O	0.787286	0.760676	0.151355
	O2415	O	0.723679	0.765062	0.175825
	C2416	C	0.499819	0.622054	0.783988
	O2417	O	0.493290	0.650213	0.798479
	O2418	O	0.506348	0.593894	0.769496
	C2419	C	0.994297	0.229697	0.167294
	O2420	O	1.003266	0.234610	0.146004
	O2421	O	0.985328	0.224783	0.188603
	C2422	C	0.996539	0.564943	0.282391
	O2423	O	0.996638	0.581727	0.302272
	O2424	O	0.996407	0.548159	0.262529
	C2425	C	0.645993	0.718799	0.602868
	O2426	O	0.645102	0.681440	0.598088
	O2427	O	0.646883	0.756159	0.607667
	C2428	C	0.508920	0.354239	0.374998
	O2429	O	0.510404	0.391269	0.369494
	O2430	O	0.507436	0.317176	0.380482
	C2431	C	0.876118	0.277212	0.043304
	O2432	O	0.876909	0.238995	0.041971
	O2433	O	0.875294	0.315396	0.044637
	C2434	C	0.237973	0.695849	0.777837
	O2435	O	0.248854	0.692981	0.756699
	O2436	O	0.227092	0.698718	0.798975
	C2437	C	0.426056	0.236127	0.171541
	O2438	O	0.425496	0.241303	0.193440
	O2439	O	0.426617	0.230950	0.149641
	C2440	C	0.740859	0.234544	0.682469
	O2441	O	0.706434	0.232302	0.672871
	O2442	O	0.775251	0.236786	0.692066
	C2443	C	0.389455	0.500413	0.533875
	O2444	O	0.380486	0.470044	0.546310
	O2445	O	0.398391	0.530749	0.521459
	C2446	C	0.113430	0.734099	0.537360
	O2447	O	0.102318	0.719195	0.556669
	O2448	O	0.124576	0.749036	0.518050
	C2449	C	0.730505	0.399875	0.902912
	O2450	O	0.729549	0.398259	0.880822
	O2451	O	0.731428	0.401491	0.924983
	C2452	C	0.750586	0.894616	0.449304
	O2453	O	0.744882	0.916445	0.467167
	O2454	O	0.756258	0.872821	0.431442
	C2455	C	0.155373	0.344776	0.494646
	O2456	O	0.168563	0.372012	0.481106
	O2457	O	0.142184	0.317539	0.508186
	C2458	C	0.602797	0.984965	0.021766
	O2459	O	0.598807	1.020313	0.029955
	O2460	O	0.606820	0.949617	0.013597
	C2461	C	0.239919	0.134006	0.359401
	O2462	O	0.239853	0.172190	0.357859
	O2463	O	0.239984	0.095822	0.360925
	C2464	C	0.988197	0.728593	0.181481
	O2465	O	0.968313	0.726647	0.162629
	O2466	O	1.008047	0.730571	0.200353
	C2467	C	0.999342	0.125796	0.844811
	O2468	O	1.013619	0.094668	0.834928
	O2469	O	0.985031	0.156923	0.854676
	C2470	C	0.121047	0.506216	0.057282
	O2471	O	0.115376	0.534904	0.071545
	O2472	O	0.126686	0.477529	0.043018
	C2473	C	0.984075	0.630891	0.454636
	O2474	O	1.007387	0.658556	0.461854
	O2475	O	0.960795	0.603226	0.447419
	C2476	C	0.637584	0.639233	0.908873
	O2477	O	0.616811	0.639365	0.927440
	O2478	O	0.658391	0.639101	0.890325
	C2479	C	0.337719	0.098229	0.911558
	O2480	O	0.324464	0.088799	0.891543
	O2481	O	0.351008	0.107627	0.931553
	C2482	C	0.125367	0.249745	0.548728
	O2483	O	0.135688	0.217430	0.538502
	O2484	O	0.115013	0.282059	0.558974
	C2485	C	0.229993	0.748806	0.200791
	O2486	O	0.192997	0.744981	0.206009
	O2487	O	0.266990	0.752631	0.195573
	C2488	C	0.518021	0.752894	0.143757
	O2489	O	0.483365	0.750817	0.153050
	O2490	O	0.552676	0.754939	0.134445
	C2491	C	0.517955	0.493950	0.156782
	O2492	O	0.555578	0.498665	0.153697
	O2493	O	0.480365	0.489235	0.159848
	C2494	C	0.520890	0.232697	0.673633
	O2495	O	0.530914	0.231708	0.652304
	O2496	O	0.510833	0.233719	0.694961
	C2497	C	0.602599	0.124213	0.456998
	O2498	O	0.567251	0.110496	0.454008
	O2499	O	0.637980	0.137930	0.459987
	C2500	C	0.689189	0.012959	0.661388
	O2501	O	0.678109	0.018037	0.682354
	O2502	O	0.700235	0.007848	0.640440
	C2503	C	0.364395	0.892176	0.944598
	O2504	O	0.402051	0.886307	0.946635
	O2505	O	0.326739	0.898046	0.942541
	C2506	C	0.381476	0.023741	0.625130
	O2507	O	0.394599	0.055990	0.615932
	O2508	O	0.368352	-0.008507	0.634346
	C2509	C	0.136116	0.982855	0.107156
	O2510	O	0.145514	0.949815	0.116925
	O2511	O	0.126719	1.015895	0.097387
	C2512	C	0.910114	0.891022	0.907501
	O2513	O	0.904640	0.878756	0.928201
	O2514	O	0.915588	0.903289	0.886802
	C2515	C	0.235203	0.635705	0.312917
	O2516	O	0.240314	0.668976	0.323429
	O2517	O	0.230059	0.602434	0.302405
	C2518	C	0.244271	0.139282	0.775056
	O2519	O	0.234676	0.102549	0.772219
	O2520	O	0.253866	0.176015	0.777913
	C2521	C	0.415043	0.771195	0.611514
	O2522	O	0.419791	0.735715	0.603687
	O2523	O	0.410262	0.806675	0.619340
	C2524	C	0.630561	0.367363	0.414569
	O2525	O	0.595806	0.377882	0.407581
	O2526	O	0.665316	0.356811	0.421558
	C2527	C	0.627132	0.855114	0.468709
	O2528	O	0.661062	0.847266	0.459530
	O2529	O	0.593201	0.862994	0.477888
	C2530	C	0.168596	0.635903	0.995481
	O2531	O	0.134962	0.645201	1.004603
	O2532	O	0.202196	0.626637	0.986359
	C2533	C	0.232697	0.006496	0.755004
	O2534	O	0.199789	0.003100	0.766125
	O2535	O	0.265605	0.009892	0.743883
	C2536	C	0.720646	0.980151	0.272165
	O2537	O	0.734066	0.982195	0.251484
	O2538	O	0.707258	0.978074	0.292846
	C2539	C	0.518351	0.717876	0.838432
	O2540	O	0.511657	0.693871	0.855209
	O2541	O	0.525011	0.741881	0.821636
	C2542	C	0.981964	0.733242	0.301167
	O2543	O	0.968148	0.743563	0.320896
	O2544	O	0.995781	0.722921	0.281439
	C2545	C	0.994330	0.318594	0.343196
	O2546	O	1.005112	0.328322	0.363648
	O2547	O	0.983580	0.308900	0.322724
	C2548	C	0.820722	0.098196	0.896361
	O2549	O	0.785110	0.099680	0.888325
	O2550	O	0.856367	0.096713	0.904397
