data_Molecule from CHK

_cell_length_a		46.526338
_cell_length_b		46.985290
_cell_length_c		36.818450
_cell_angle_alpha	88.469358
_cell_angle_beta	90.801339
_cell_angle_gamma	120.680272
_symmetry_space_group_name_H-M	'P 1'
_symmetry_Int_Tables_number		1

loop_
	_symmetry_equiv_pos_as_xyz
	x,y,z

loop_
	_atom_site_label
	_atom_site_type_symbol
	_atom_site_fract_x
	_atom_site_fract_y
	_atom_site_fract_z
	C0	C	0.066989	-0.022605	0.201707
	C1	C	0.061702	-0.003245	0.226182
	O2	O	0.030991	-0.007567	0.229731
	C3	C	0.088183	0.019851	0.247714
	C4	C	0.118867	0.020629	0.247215
	O5	O	0.143647	0.040359	0.270202
	C6	C	0.124516	0.001468	0.223082
	C7	C	0.099035	-0.018424	0.198880
	O8	O	0.105376	-0.033792	0.172314
	H9	H	0.160482	0.058627	0.254150
	H10	H	0.119405	-0.015654	0.154473
	H11	H	0.028294	0.005332	0.209477
	C12	C	0.071676	0.081773	0.015095
	C13	C	0.094603	0.111190	0.031204
	C14	C	0.125680	0.132276	0.015095
	C15	C	0.133521	0.123782	-0.017413
	C16	C	0.111303	0.093085	-0.032371
	C17	C	0.080934	0.071623	-0.015832
	C18	C	0.079362	0.114318	0.065183
	C19	C	0.039239	0.067615	0.035709
	N20	N	0.045484	0.088883	0.065337
	O21	O	0.012739	0.044176	0.028323
	O22	O	0.092361	0.133938	0.088977
	C23	C	0.167896	0.150910	-0.028520
	C24	C	0.153952	0.165952	0.025104
	N25	N	0.178908	0.175397	-0.001823
	O26	O	0.156021	0.182438	0.050352
	O27	O	0.184198	0.152905	-0.054454
	C28	C	0.064865	0.039509	-0.036076
	C29	C	0.113296	0.077558	-0.066340
	N30	N	0.086432	0.044516	-0.065697
	O31	O	0.133372	0.089860	-0.090503
	O32	O	0.039829	0.013994	-0.028812
	C33	C	0.249594	-0.009660	0.237250
	C34	C	0.219677	-0.018098	0.254079
	C35	C	0.198424	-0.008114	0.238788
	C36	C	0.207306	0.010162	0.206511
	C37	C	0.238193	0.020034	0.190529
	C38	C	0.259460	0.010438	0.205765
	C39	C	0.216269	-0.038458	0.287604
	C40	C	0.264908	-0.026773	0.257871
	N41	N	0.243255	-0.044356	0.287259
	O42	O	0.289687	-0.027369	0.250956
	O43	O	0.195477	-0.048150	0.310952
	C44	C	0.180076	0.017137	0.196325
	C45	C	0.164490	-0.014588	0.249805
	N46	N	0.155232	0.001876	0.223408
	O47	O	0.147547	-0.030134	0.275287
	O48	O	0.177871	0.032266	0.170750
	C49	C	0.291528	0.027247	0.184181
	C50	C	0.254103	0.039922	0.156554
	N51	N	0.286911	0.045306	0.155546
	O52	O	0.242210	0.049706	0.133956
	O53	O	0.317084	0.027356	0.189567
	C54	C	-0.008750	0.250995	0.096235
	C55	C	-0.014703	0.222643	0.078952
	C56	C	-0.004794	0.201648	0.094865
	C57	C	0.011305	0.209313	0.128125
	C58	C	0.019162	0.238957	0.144519
	C59	C	0.009841	0.260126	0.128493
	C60	C	-0.032939	0.220054	0.044335
	C61	C	-0.026577	0.265352	0.075009
	N62	N	-0.041234	0.245039	0.044309
	O63	O	-0.029418	0.288346	0.082753
	O64	O	-0.039970	0.200798	0.020283
	C65	C	0.018484	0.182390	0.138615
	C66	C	-0.010351	0.168624	0.083810
	N67	N	0.005047	0.158803	0.110813
	O68	O	-0.025041	0.152665	0.057935
	O69	O	0.032456	0.179583	0.164871
	C70	C	0.024307	0.290791	0.151052
	C71	C	0.036203	0.253376	0.179766
	N72	N	0.040915	0.285574	0.180792
	O73	O	0.044275	0.240835	0.203423
	O74	O	0.024080	0.315980	0.145725
	C75	C	0.242942	0.263125	-0.024838
	C76	C	0.268765	0.268411	-0.000564
	O77	O	0.296121	0.298664	0.001705
	C78	C	0.265522	0.242404	0.022208
	C79	C	0.235276	0.211781	0.021907
	O80	O	0.230534	0.187196	0.045512
	C81	C	0.209709	0.205932	-0.002689
	C82	C	0.214868	0.231161	-0.027539
	O83	O	0.191819	0.224859	-0.053699
	H84	H	0.234881	0.172270	0.030668
	H85	H	0.197085	0.213451	-0.072726
	H86	H	0.311082	0.300851	-0.018638
	C87	C	-0.021000	0.071043	0.133818
	C88	C	-0.001795	0.065463	0.108991
	O89	O	-0.006698	0.034852	0.106056
	C90	C	0.021516	0.091455	0.086428
	C91	C	0.023095	0.122212	0.086844
	O92	O	0.043101	0.146636	0.063086
	C93	C	0.004104	0.128123	0.111406
	C94	C	-0.015804	0.103099	0.136657
	O95	O	-0.031409	0.109495	0.163165
	H96	H	0.062657	0.162410	0.078019
	H97	H	-0.013435	0.121956	0.181404
	H98	H	0.007716	0.032536	0.124598
	C99	C	0.066989	-0.022605	0.535040
	C100	C	0.061702	-0.003245	0.559515
	O101	O	0.030991	-0.007567	0.563064
	C102	C	0.088183	0.019851	0.581047
	C103	C	0.118867	0.020629	0.580549
	O104	O	0.143647	0.040359	0.603535
	C105	C	0.124516	0.001468	0.556415
	C106	C	0.099035	-0.018424	0.532214
	O107	O	0.105376	-0.033792	0.505648
	H108	H	0.160482	0.058627	0.587483
	H109	H	0.119405	-0.015654	0.487806
	H110	H	0.028294	0.005332	0.542810
	C111	C	0.071676	0.081773	0.348428
	C112	C	0.094603	0.111190	0.364538
	C113	C	0.125680	0.132276	0.348428
	C114	C	0.133521	0.123782	0.315920
	C115	C	0.111303	0.093085	0.300963
	C116	C	0.080934	0.071623	0.317501
	C117	C	0.079362	0.114318	0.398516
	C118	C	0.039239	0.067615	0.369042
	N119	N	0.045484	0.088883	0.398671
	O120	O	0.012739	0.044176	0.361657
	O121	O	0.092361	0.133938	0.422310
	C122	C	0.167896	0.150910	0.304813
	C123	C	0.153952	0.165952	0.358437
	N124	N	0.178908	0.175397	0.331511
	O125	O	0.156021	0.182438	0.383685
	O126	O	0.184198	0.152905	0.278879
	C127	C	0.064865	0.039509	0.297257
	C128	C	0.113296	0.077558	0.266993
	N129	N	0.086432	0.044516	0.267637
	O130	O	0.133372	0.089860	0.242830
	O131	O	0.039829	0.013994	0.304521
	C132	C	0.249594	-0.009660	0.570583
	C133	C	0.219677	-0.018098	0.587413
	C134	C	0.198424	-0.008114	0.572121
	C135	C	0.207306	0.010162	0.539844
	C136	C	0.238193	0.020034	0.523862
	C137	C	0.259460	0.010438	0.539098
	C138	C	0.216269	-0.038458	0.620938
	C139	C	0.264908	-0.026773	0.591205
	N140	N	0.243255	-0.044356	0.620593
	O141	O	0.289687	-0.027369	0.584290
	O142	O	0.195477	-0.048150	0.644285
	C143	C	0.180076	0.017137	0.529658
	C144	C	0.164490	-0.014588	0.583138
	N145	N	0.155232	0.001876	0.556742
	O146	O	0.147547	-0.030134	0.608620
	O147	O	0.177871	0.032266	0.504083
	C148	C	0.291528	0.027247	0.517514
	C149	C	0.254103	0.039922	0.489888
	N150	N	0.286911	0.045306	0.488879
	O151	O	0.242210	0.049706	0.467289
	O152	O	0.317084	0.027356	0.522900
	C153	C	-0.008750	0.250995	0.429568
	C154	C	-0.014703	0.222643	0.412285
	C155	C	-0.004794	0.201648	0.428198
	C156	C	0.011305	0.209313	0.461459
	C157	C	0.019162	0.238957	0.477852
	C158	C	0.009841	0.260126	0.461827
	C159	C	-0.032939	0.220054	0.377668
	C160	C	-0.026577	0.265352	0.408342
	N161	N	-0.041234	0.245039	0.377643
	O162	O	-0.029418	0.288346	0.416086
	O163	O	-0.039970	0.200798	0.353617
	C164	C	0.018484	0.182390	0.471948
	C165	C	-0.010351	0.168624	0.417144
	N166	N	0.005047	0.158803	0.444146
	O167	O	-0.025041	0.152665	0.391269
	O168	O	0.032456	0.179583	0.498204
	C169	C	0.024307	0.290791	0.484386
	C170	C	0.036203	0.253376	0.513100
	N171	N	0.040915	0.285574	0.514125
	O172	O	0.044275	0.240835	0.536756
	O173	O	0.024080	0.315980	0.479059
	C174	C	0.242942	0.263125	0.308495
	C175	C	0.268765	0.268411	0.332769
	O176	O	0.296121	0.298664	0.335038
	C177	C	0.265522	0.242404	0.355541
	C178	C	0.235276	0.211781	0.355241
	O179	O	0.230534	0.187196	0.378845
	C180	C	0.209709	0.205932	0.330645
	C181	C	0.214868	0.231161	0.305794
	O182	O	0.191819	0.224859	0.279634
	H183	H	0.234881	0.172270	0.364002
	H184	H	0.197085	0.213451	0.260607
	H185	H	0.311082	0.300851	0.314695
	C186	C	-0.021000	0.071043	0.467151
	C187	C	-0.001795	0.065463	0.442324
	O188	O	-0.006698	0.034852	0.439390
	C189	C	0.021516	0.091455	0.419761
	C190	C	0.023095	0.122212	0.420177
	O191	O	0.043101	0.146636	0.396419
	C192	C	0.004104	0.128123	0.444740
	C193	C	-0.015804	0.103099	0.469991
	O194	O	-0.031409	0.109495	0.496499
	H195	H	0.062657	0.162410	0.411352
	H196	H	-0.013435	0.121956	0.514738
	H197	H	0.007716	0.032536	0.457931
	C198	C	0.066989	-0.022605	0.868374
	C199	C	0.061702	-0.003245	0.892848
	O200	O	0.030991	-0.007567	0.896397
	C201	C	0.088183	0.019851	0.914381
	C202	C	0.118867	0.020629	0.913882
	O203	O	0.143647	0.040359	0.936869
	C204	C	0.124516	0.001468	0.889748
	C205	C	0.099035	-0.018424	0.865547
	O206	O	0.105376	-0.033792	0.838981
	H207	H	0.160482	0.058627	0.920817
	H208	H	0.119405	-0.015654	0.821140
	H209	H	0.028294	0.005332	0.876144
	C210	C	0.071676	0.081773	0.681762
	C211	C	0.094603	0.111190	0.697871
	C212	C	0.125680	0.132276	0.681761
	C213	C	0.133521	0.123782	0.649253
	C214	C	0.111303	0.093085	0.634296
	C215	C	0.080934	0.071623	0.650835
	C216	C	0.079362	0.114318	0.731849
	C217	C	0.039239	0.067615	0.702375
	N218	N	0.045484	0.088883	0.732004
	O219	O	0.012739	0.044176	0.694990
	O220	O	0.092361	0.133938	0.755644
	C221	C	0.167896	0.150910	0.638146
	C222	C	0.153952	0.165952	0.691770
	N223	N	0.178908	0.175397	0.664844
	O224	O	0.156021	0.182438	0.717019
	O225	O	0.184198	0.152905	0.612212
	C226	C	0.064865	0.039509	0.630590
	C227	C	0.113296	0.077558	0.600327
	N228	N	0.086432	0.044516	0.600970
	O229	O	0.133372	0.089860	0.576164
	O230	O	0.039829	0.013994	0.637854
	C231	C	0.249594	-0.009660	0.903917
	C232	C	0.219677	-0.018098	0.920746
	C233	C	0.198424	-0.008114	0.905454
	C234	C	0.207306	0.010162	0.873178
	C235	C	0.238193	0.020034	0.857195
	C236	C	0.259460	0.010438	0.872431
	C237	C	0.216269	-0.038458	0.954271
	C238	C	0.264908	-0.026773	0.924538
	N239	N	0.243255	-0.044356	0.953926
	O240	O	0.289687	-0.027369	0.917623
	O241	O	0.195477	-0.048150	0.977619
	C242	C	0.180076	0.017137	0.862992
	C243	C	0.164490	-0.014588	0.916472
	N244	N	0.155232	0.001876	0.890075
	O245	O	0.147547	-0.030134	0.941954
	O246	O	0.177871	0.032266	0.837417
	C247	C	0.291528	0.027247	0.850847
	C248	C	0.254103	0.039922	0.823221
	N249	N	0.286911	0.045306	0.822212
	O250	O	0.242210	0.049706	0.800622
	O251	O	0.317084	0.027356	0.856233
	C252	C	-0.008750	0.250995	0.762901
	C253	C	-0.014703	0.222643	0.745618
	C254	C	-0.004794	0.201648	0.761532
	C255	C	0.011305	0.209313	0.794792
	C256	C	0.019162	0.238957	0.811186
	C257	C	0.009841	0.260126	0.795160
	C258	C	-0.032939	0.220054	0.711001
	C259	C	-0.026577	0.265352	0.741675
	N260	N	-0.041234	0.245039	0.710976
	O261	O	-0.029418	0.288346	0.749419
	O262	O	-0.039970	0.200798	0.686950
	C263	C	0.018484	0.182390	0.805282
	C264	C	-0.010351	0.168624	0.750477
	N265	N	0.005047	0.158803	0.777479
	O266	O	-0.025041	0.152665	0.724602
	O267	O	0.032456	0.179583	0.831537
	C268	C	0.024307	0.290791	0.817719
	C269	C	0.036203	0.253376	0.846433
	N270	N	0.040915	0.285574	0.847458
	O271	O	0.044275	0.240835	0.870090
	O272	O	0.024080	0.315980	0.812392
	C273	C	0.242942	0.263125	0.641829
	C274	C	0.268765	0.268411	0.666102
	O275	O	0.296121	0.298664	0.668371
	C276	C	0.265522	0.242404	0.688874
	C277	C	0.235276	0.211781	0.688574
	O278	O	0.230534	0.187196	0.712179
	C279	C	0.209709	0.205932	0.663978
	C280	C	0.214868	0.231161	0.639128
	O281	O	0.191819	0.224859	0.612968
	H282	H	0.234881	0.172270	0.697335
	H283	H	0.197085	0.213451	0.593941
	H284	H	0.311082	0.300851	0.648028
	C285	C	-0.021000	0.071043	0.800485
	C286	C	-0.001795	0.065463	0.775657
	O287	O	-0.006698	0.034852	0.772723
	C288	C	0.021516	0.091455	0.753094
	C289	C	0.023095	0.122212	0.753511
	O290	O	0.043101	0.146636	0.729753
	C291	C	0.004104	0.128123	0.778073
	C292	C	-0.015804	0.103099	0.803324
	O293	O	-0.031409	0.109495	0.829832
	H294	H	0.062657	0.162410	0.744686
	H295	H	-0.013435	0.121956	0.848071
	H296	H	0.007716	0.032536	0.791264
	C297	C	0.066989	0.310728	0.201707
	C298	C	0.061702	0.330088	0.226182
	O299	O	0.030991	0.325766	0.229731
	C300	C	0.088183	0.353185	0.247714
	C301	C	0.118867	0.353962	0.247215
	O302	O	0.143647	0.373693	0.270202
	C303	C	0.124516	0.334801	0.223082
	C304	C	0.099035	0.314910	0.198880
	O305	O	0.105376	0.299541	0.172314
	H306	H	0.160482	0.391960	0.254150
	H307	H	0.119405	0.317679	0.154473
	H308	H	0.028294	0.338666	0.209477
	C309	C	0.071676	0.415106	0.015095
	C310	C	0.094603	0.444523	0.031204
	C311	C	0.125680	0.465609	0.015095
	C312	C	0.133521	0.457115	-0.017413
	C313	C	0.111303	0.426419	-0.032371
	C314	C	0.080934	0.404957	-0.015832
	C315	C	0.079362	0.447652	0.065183
	C316	C	0.039239	0.400948	0.035709
	N317	N	0.045484	0.422217	0.065337
	O318	O	0.012739	0.377510	0.028323
	O319	O	0.092361	0.467271	0.088977
	C320	C	0.167896	0.484244	-0.028520
	C321	C	0.153952	0.499286	0.025104
	N322	N	0.178908	0.508730	-0.001823
	O323	O	0.156021	0.515772	0.050352
	O324	O	0.184198	0.486239	-0.054454
	C325	C	0.064865	0.372843	-0.036076
	C326	C	0.113296	0.410891	-0.066340
	N327	N	0.086432	0.377849	-0.065697
	O328	O	0.133372	0.423193	-0.090503
	O329	O	0.039829	0.347328	-0.028812
	C330	C	0.249594	0.323673	0.237250
	C331	C	0.219677	0.315235	0.254079
	C332	C	0.198424	0.325219	0.238788
	C333	C	0.207306	0.343495	0.206511
	C334	C	0.238193	0.353367	0.190529
	C335	C	0.259460	0.343771	0.205765
	C336	C	0.216269	0.294876	0.287604
	C337	C	0.264908	0.306561	0.257871
	N338	N	0.243255	0.288978	0.287259
	O339	O	0.289687	0.305964	0.250956
	O340	O	0.195477	0.285183	0.310952
	C341	C	0.180076	0.350471	0.196325
	C342	C	0.164490	0.318745	0.249805
	N343	N	0.155232	0.335209	0.223408
	O344	O	0.147547	0.303200	0.275287
	O345	O	0.177871	0.365599	0.170750
	C346	C	0.291528	0.360580	0.184181
	C347	C	0.254103	0.373255	0.156554
	N348	N	0.286911	0.378639	0.155546
	O349	O	0.242210	0.383040	0.133956
	O350	O	0.317084	0.360689	0.189567
	C351	C	-0.008750	0.584328	0.096235
	C352	C	-0.014703	0.555976	0.078952
	C353	C	-0.004794	0.534982	0.094865
	C354	C	0.011305	0.542646	0.128125
	C355	C	0.019162	0.572291	0.144519
	C356	C	0.009841	0.593459	0.128493
	C357	C	-0.032939	0.553387	0.044335
	C358	C	-0.026577	0.598685	0.075009
	N359	N	-0.041234	0.578373	0.044309
	O360	O	-0.029418	0.621680	0.082753
	O361	O	-0.039970	0.534131	0.020283
	C362	C	0.018484	0.515723	0.138615
	C363	C	-0.010351	0.501957	0.083810
	N364	N	0.005047	0.492137	0.110813
	O365	O	-0.025041	0.485999	0.057935
	O366	O	0.032456	0.512916	0.164871
	C367	C	0.024307	0.624124	0.151052
	C368	C	0.036203	0.586709	0.179766
	N369	N	0.040915	0.618907	0.180792
	O370	O	0.044275	0.574168	0.203423
	O371	O	0.024080	0.649314	0.145725
	C372	C	0.242942	0.596458	-0.024838
	C373	C	0.268765	0.601744	-0.000564
	O374	O	0.296121	0.631997	0.001705
	C375	C	0.265522	0.575738	0.022208
	C376	C	0.235276	0.545114	0.021907
	O377	O	0.230534	0.520530	0.045512
	C378	C	0.209709	0.539266	-0.002689
	C379	C	0.214868	0.564495	-0.027539
	O380	O	0.191819	0.558192	-0.053699
	H381	H	0.234881	0.505603	0.030668
	H382	H	0.197085	0.546784	-0.072726
	H383	H	0.311082	0.634185	-0.018638
	C384	C	-0.021000	0.404377	0.133818
	C385	C	-0.001795	0.398796	0.108991
	O386	O	-0.006698	0.368186	0.106056
	C387	C	0.021516	0.424789	0.086428
	C388	C	0.023095	0.455546	0.086844
	O389	O	0.043101	0.479970	0.063086
	C390	C	0.004104	0.461456	0.111406
	C391	C	-0.015804	0.436433	0.136657
	O392	O	-0.031409	0.442828	0.163165
	H393	H	0.062657	0.495743	0.078019
	H394	H	-0.013435	0.455289	0.181404
	H395	H	0.007716	0.365870	0.124598
	C396	C	0.066989	0.310728	0.535040
	C397	C	0.061702	0.330088	0.559515
	O398	O	0.030991	0.325766	0.563064
	C399	C	0.088183	0.353185	0.581047
	C400	C	0.118867	0.353962	0.580549
	O401	O	0.143647	0.373693	0.603535
	C402	C	0.124516	0.334801	0.556415
	C403	C	0.099035	0.314910	0.532214
	O404	O	0.105376	0.299541	0.505648
	H405	H	0.160482	0.391960	0.587483
	H406	H	0.119405	0.317679	0.487806
	H407	H	0.028294	0.338666	0.542810
	C408	C	0.071676	0.415106	0.348428
	C409	C	0.094603	0.444523	0.364538
	C410	C	0.125680	0.465609	0.348428
	C411	C	0.133521	0.457115	0.315920
	C412	C	0.111303	0.426419	0.300963
	C413	C	0.080934	0.404957	0.317501
	C414	C	0.079362	0.447652	0.398516
	C415	C	0.039239	0.400948	0.369042
	N416	N	0.045484	0.422217	0.398671
	O417	O	0.012739	0.377510	0.361657
	O418	O	0.092361	0.467271	0.422310
	C419	C	0.167896	0.484244	0.304813
	C420	C	0.153952	0.499286	0.358437
	N421	N	0.178908	0.508730	0.331511
	O422	O	0.156021	0.515772	0.383685
	O423	O	0.184198	0.486239	0.278879
	C424	C	0.064865	0.372843	0.297257
	C425	C	0.113296	0.410891	0.266993
	N426	N	0.086432	0.377849	0.267637
	O427	O	0.133372	0.423193	0.242830
	O428	O	0.039829	0.347328	0.304521
	C429	C	0.249594	0.323673	0.570583
	C430	C	0.219677	0.315235	0.587413
	C431	C	0.198424	0.325219	0.572121
	C432	C	0.207306	0.343495	0.539844
	C433	C	0.238193	0.353367	0.523862
	C434	C	0.259460	0.343771	0.539098
	C435	C	0.216269	0.294876	0.620938
	C436	C	0.264908	0.306561	0.591205
	N437	N	0.243255	0.288978	0.620593
	O438	O	0.289687	0.305964	0.584290
	O439	O	0.195477	0.285183	0.644285
	C440	C	0.180076	0.350471	0.529658
	C441	C	0.164490	0.318745	0.583138
	N442	N	0.155232	0.335209	0.556742
	O443	O	0.147547	0.303200	0.608620
	O444	O	0.177871	0.365599	0.504083
	C445	C	0.291528	0.360580	0.517514
	C446	C	0.254103	0.373255	0.489888
	N447	N	0.286911	0.378639	0.488879
	O448	O	0.242210	0.383040	0.467289
	O449	O	0.317084	0.360689	0.522900
	C450	C	-0.008750	0.584328	0.429568
	C451	C	-0.014703	0.555976	0.412285
	C452	C	-0.004794	0.534982	0.428198
	C453	C	0.011305	0.542646	0.461459
	C454	C	0.019162	0.572291	0.477852
	C455	C	0.009841	0.593459	0.461827
	C456	C	-0.032939	0.553387	0.377668
	C457	C	-0.026577	0.598685	0.408342
	N458	N	-0.041234	0.578373	0.377643
	O459	O	-0.029418	0.621680	0.416086
	O460	O	-0.039970	0.534131	0.353617
	C461	C	0.018484	0.515723	0.471948
	C462	C	-0.010351	0.501957	0.417144
	N463	N	0.005047	0.492137	0.444146
	O464	O	-0.025041	0.485999	0.391269
	O465	O	0.032456	0.512916	0.498204
	C466	C	0.024307	0.624124	0.484386
	C467	C	0.036203	0.586709	0.513100
	N468	N	0.040915	0.618907	0.514125
	O469	O	0.044275	0.574168	0.536756
	O470	O	0.024080	0.649314	0.479059
	C471	C	0.242942	0.596458	0.308495
	C472	C	0.268765	0.601744	0.332769
	O473	O	0.296121	0.631997	0.335038
	C474	C	0.265522	0.575738	0.355541
	C475	C	0.235276	0.545114	0.355241
	O476	O	0.230534	0.520530	0.378845
	C477	C	0.209709	0.539266	0.330645
	C478	C	0.214868	0.564495	0.305794
	O479	O	0.191819	0.558192	0.279634
	H480	H	0.234881	0.505603	0.364002
	H481	H	0.197085	0.546784	0.260607
	H482	H	0.311082	0.634185	0.314695
	C483	C	-0.021000	0.404377	0.467151
	C484	C	-0.001795	0.398796	0.442324
	O485	O	-0.006698	0.368186	0.439390
	C486	C	0.021516	0.424789	0.419761
	C487	C	0.023095	0.455546	0.420177
	O488	O	0.043101	0.479970	0.396419
	C489	C	0.004104	0.461456	0.444740
	C490	C	-0.015804	0.436433	0.469991
	O491	O	-0.031409	0.442828	0.496499
	H492	H	0.062657	0.495743	0.411352
	H493	H	-0.013435	0.455289	0.514738
	H494	H	0.007716	0.365870	0.457931
	C495	C	0.066989	0.310728	0.868374
	C496	C	0.061702	0.330088	0.892848
	O497	O	0.030991	0.325766	0.896397
	C498	C	0.088183	0.353185	0.914381
	C499	C	0.118867	0.353962	0.913882
	O500	O	0.143647	0.373693	0.936869
	C501	C	0.124516	0.334801	0.889748
	C502	C	0.099035	0.314910	0.865547
	O503	O	0.105376	0.299541	0.838981
	H504	H	0.160482	0.391960	0.920817
	H505	H	0.119405	0.317679	0.821140
	H506	H	0.028294	0.338666	0.876144
	C507	C	0.071676	0.415106	0.681762
	C508	C	0.094603	0.444523	0.697871
	C509	C	0.125680	0.465609	0.681761
	C510	C	0.133521	0.457115	0.649253
	C511	C	0.111303	0.426419	0.634296
	C512	C	0.080934	0.404957	0.650835
	C513	C	0.079362	0.447652	0.731849
	C514	C	0.039239	0.400948	0.702375
	N515	N	0.045484	0.422217	0.732004
	O516	O	0.012739	0.377510	0.694990
	O517	O	0.092361	0.467271	0.755644
	C518	C	0.167896	0.484244	0.638146
	C519	C	0.153952	0.499286	0.691770
	N520	N	0.178908	0.508730	0.664844
	O521	O	0.156021	0.515772	0.717019
	O522	O	0.184198	0.486239	0.612212
	C523	C	0.064865	0.372843	0.630590
	C524	C	0.113296	0.410891	0.600327
	N525	N	0.086432	0.377849	0.600970
	O526	O	0.133372	0.423193	0.576164
	O527	O	0.039829	0.347328	0.637854
	C528	C	0.249594	0.323673	0.903917
	C529	C	0.219677	0.315235	0.920746
	C530	C	0.198424	0.325219	0.905454
	C531	C	0.207306	0.343495	0.873178
	C532	C	0.238193	0.353367	0.857195
	C533	C	0.259460	0.343771	0.872431
	C534	C	0.216269	0.294876	0.954271
	C535	C	0.264908	0.306561	0.924538
	N536	N	0.243255	0.288978	0.953926
	O537	O	0.289687	0.305964	0.917623
	O538	O	0.195477	0.285183	0.977619
	C539	C	0.180076	0.350471	0.862992
	C540	C	0.164490	0.318745	0.916472
	N541	N	0.155232	0.335209	0.890075
	O542	O	0.147547	0.303200	0.941954
	O543	O	0.177871	0.365599	0.837417
	C544	C	0.291528	0.360580	0.850847
	C545	C	0.254103	0.373255	0.823221
	N546	N	0.286911	0.378639	0.822212
	O547	O	0.242210	0.383040	0.800622
	O548	O	0.317084	0.360689	0.856233
	C549	C	-0.008750	0.584328	0.762901
	C550	C	-0.014703	0.555976	0.745618
	C551	C	-0.004794	0.534982	0.761532
	C552	C	0.011305	0.542646	0.794792
	C553	C	0.019162	0.572291	0.811186
	C554	C	0.009841	0.593459	0.795160
	C555	C	-0.032939	0.553387	0.711001
	C556	C	-0.026577	0.598685	0.741675
	N557	N	-0.041234	0.578373	0.710976
	O558	O	-0.029418	0.621680	0.749419
	O559	O	-0.039970	0.534131	0.686950
	C560	C	0.018484	0.515723	0.805282
	C561	C	-0.010351	0.501957	0.750477
	N562	N	0.005047	0.492137	0.777479
	O563	O	-0.025041	0.485999	0.724602
	O564	O	0.032456	0.512916	0.831537
	C565	C	0.024307	0.624124	0.817719
	C566	C	0.036203	0.586709	0.846433
	N567	N	0.040915	0.618907	0.847458
	O568	O	0.044275	0.574168	0.870090
	O569	O	0.024080	0.649314	0.812392
	C570	C	0.242942	0.596458	0.641829
	C571	C	0.268765	0.601744	0.666102
	O572	O	0.296121	0.631997	0.668371
	C573	C	0.265522	0.575738	0.688874
	C574	C	0.235276	0.545114	0.688574
	O575	O	0.230534	0.520530	0.712179
	C576	C	0.209709	0.539266	0.663978
	C577	C	0.214868	0.564495	0.639128
	O578	O	0.191819	0.558192	0.612968
	H579	H	0.234881	0.505603	0.697335
	H580	H	0.197085	0.546784	0.593941
	H581	H	0.311082	0.634185	0.648028
	C582	C	-0.021000	0.404377	0.800485
	C583	C	-0.001795	0.398796	0.775657
	O584	O	-0.006698	0.368186	0.772723
	C585	C	0.021516	0.424789	0.753094
	C586	C	0.023095	0.455546	0.753511
	O587	O	0.043101	0.479970	0.729753
	C588	C	0.004104	0.461456	0.778073
	C589	C	-0.015804	0.436433	0.803324
	O590	O	-0.031409	0.442828	0.829832
	H591	H	0.062657	0.495743	0.744686
	H592	H	-0.013435	0.455289	0.848071
	H593	H	0.007716	0.365870	0.791264
	C594	C	0.066989	0.644061	0.201707
	C595	C	0.061702	0.663422	0.226182
	O596	O	0.030991	0.659099	0.229731
	C597	C	0.088183	0.686518	0.247714
	C598	C	0.118867	0.687295	0.247215
	O599	O	0.143647	0.707026	0.270202
	C600	C	0.124516	0.668135	0.223082
	C601	C	0.099035	0.648243	0.198880
	O602	O	0.105376	0.632874	0.172314
	H603	H	0.160482	0.725293	0.254150
	H604	H	0.119405	0.651013	0.154473
	H605	H	0.028294	0.671999	0.209477
	C606	C	0.071676	0.748439	0.015095
	C607	C	0.094603	0.777856	0.031204
	C608	C	0.125680	0.798943	0.015095
	C609	C	0.133521	0.790449	-0.017413
	C610	C	0.111303	0.759752	-0.032371
	C611	C	0.080934	0.738290	-0.015832
	C612	C	0.079362	0.780985	0.065183
	C613	C	0.039239	0.734282	0.035709
	N614	N	0.045484	0.755550	0.065337
	O615	O	0.012739	0.710843	0.028323
	O616	O	0.092361	0.800604	0.088977
	C617	C	0.167896	0.817577	-0.028520
	C618	C	0.153952	0.832619	0.025104
	N619	N	0.178908	0.842063	-0.001823
	O620	O	0.156021	0.849105	0.050352
	O621	O	0.184198	0.819572	-0.054454
	C622	C	0.064865	0.706176	-0.036076
	C623	C	0.113296	0.744225	-0.066340
	N624	N	0.086432	0.711183	-0.065697
	O625	O	0.133372	0.756527	-0.090503
	O626	O	0.039829	0.680661	-0.028812
	C627	C	0.249594	0.657006	0.237250
	C628	C	0.219677	0.648568	0.254079
	C629	C	0.198424	0.658552	0.238788
	C630	C	0.207306	0.676828	0.206511
	C631	C	0.238193	0.686701	0.190529
	C632	C	0.259460	0.677104	0.205765
	C633	C	0.216269	0.628209	0.287604
	C634	C	0.264908	0.639894	0.257871
	N635	N	0.243255	0.622311	0.287259
	O636	O	0.289687	0.639297	0.250956
	O637	O	0.195477	0.618517	0.310952
	C638	C	0.180076	0.683804	0.196325
	C639	C	0.164490	0.652079	0.249805
	N640	N	0.155232	0.668543	0.223408
	O641	O	0.147547	0.636533	0.275287
	O642	O	0.177871	0.698933	0.170750
	C643	C	0.291528	0.693913	0.184181
	C644	C	0.254103	0.706588	0.156554
	N645	N	0.286911	0.711973	0.155546
	O646	O	0.242210	0.716373	0.133956
	O647	O	0.317084	0.694022	0.189567
	C648	C	-0.008750	0.917661	0.096235
	C649	C	-0.014703	0.889309	0.078952
	C650	C	-0.004794	0.868315	0.094865
	C651	C	0.011305	0.875979	0.128125
	C652	C	0.019162	0.905624	0.144519
	C653	C	0.009841	0.926792	0.128493
	C654	C	-0.032939	0.886720	0.044335
	C655	C	-0.026577	0.932018	0.075009
	N656	N	-0.041234	0.911706	0.044309
	O657	O	-0.029418	0.955013	0.082753
	O658	O	-0.039970	0.867464	0.020283
	C659	C	0.018484	0.849057	0.138615
	C660	C	-0.010351	0.835291	0.083810
	N661	N	0.005047	0.825470	0.110813
	O662	O	-0.025041	0.819332	0.057935
	O663	O	0.032456	0.846249	0.164871
	C664	C	0.024307	0.957457	0.151052
	C665	C	0.036203	0.920042	0.179766
	N666	N	0.040915	0.952241	0.180792
	O667	O	0.044275	0.907501	0.203423
	O668	O	0.024080	0.982647	0.145725
	C669	C	0.242942	0.929792	-0.024838
	C670	C	0.268765	0.935078	-0.000564
	O671	O	0.296121	0.965331	0.001705
	C672	C	0.265522	0.909071	0.022208
	C673	C	0.235276	0.878448	0.021907
	O674	O	0.230534	0.853863	0.045512
	C675	C	0.209709	0.872599	-0.002689
	C676	C	0.214868	0.897828	-0.027539
	O677	O	0.191819	0.891525	-0.053699
	H678	H	0.234881	0.838937	0.030668
	H679	H	0.197085	0.880117	-0.072726
	H680	H	0.311082	0.967518	-0.018638
	C681	C	-0.021000	0.737710	0.133818
	C682	C	-0.001795	0.732129	0.108991
	O683	O	-0.006698	0.701519	0.106056
	C684	C	0.021516	0.758122	0.086428
	C685	C	0.023095	0.788879	0.086844
	O686	O	0.043101	0.813303	0.063086
	C687	C	0.004104	0.794789	0.111406
	C688	C	-0.015804	0.769766	0.136657
	O689	O	-0.031409	0.776162	0.163165
	H690	H	0.062657	0.829077	0.078019
	H691	H	-0.013435	0.788623	0.181404
	H692	H	0.007716	0.699203	0.124598
	C693	C	0.066989	0.644061	0.535040
	C694	C	0.061702	0.663422	0.559515
	O695	O	0.030991	0.659099	0.563064
	C696	C	0.088183	0.686518	0.581047
	C697	C	0.118867	0.687295	0.580549
	O698	O	0.143647	0.707026	0.603535
	C699	C	0.124516	0.668135	0.556415
	C700	C	0.099035	0.648243	0.532214
	O701	O	0.105376	0.632874	0.505648
	H702	H	0.160482	0.725293	0.587483
	H703	H	0.119405	0.651013	0.487806
	H704	H	0.028294	0.671999	0.542810
	C705	C	0.071676	0.748439	0.348428
	C706	C	0.094603	0.777856	0.364538
	C707	C	0.125680	0.798943	0.348428
	C708	C	0.133521	0.790449	0.315920
	C709	C	0.111303	0.759752	0.300963
	C710	C	0.080934	0.738290	0.317501
	C711	C	0.079362	0.780985	0.398516
	C712	C	0.039239	0.734282	0.369042
	N713	N	0.045484	0.755550	0.398671
	O714	O	0.012739	0.710843	0.361657
	O715	O	0.092361	0.800604	0.422310
	C716	C	0.167896	0.817577	0.304813
	C717	C	0.153952	0.832619	0.358437
	N718	N	0.178908	0.842063	0.331511
	O719	O	0.156021	0.849105	0.383685
	O720	O	0.184198	0.819572	0.278879
	C721	C	0.064865	0.706176	0.297257
	C722	C	0.113296	0.744225	0.266993
	N723	N	0.086432	0.711183	0.267637
	O724	O	0.133372	0.756527	0.242830
	O725	O	0.039829	0.680661	0.304521
	C726	C	0.249594	0.657006	0.570583
	C727	C	0.219677	0.648568	0.587413
	C728	C	0.198424	0.658552	0.572121
	C729	C	0.207306	0.676828	0.539844
	C730	C	0.238193	0.686701	0.523862
	C731	C	0.259460	0.677104	0.539098
	C732	C	0.216269	0.628209	0.620938
	C733	C	0.264908	0.639894	0.591205
	N734	N	0.243255	0.622311	0.620593
	O735	O	0.289687	0.639297	0.584290
	O736	O	0.195477	0.618517	0.644285
	C737	C	0.180076	0.683804	0.529658
	C738	C	0.164490	0.652079	0.583138
	N739	N	0.155232	0.668543	0.556742
	O740	O	0.147547	0.636533	0.608620
	O741	O	0.177871	0.698933	0.504083
	C742	C	0.291528	0.693913	0.517514
	C743	C	0.254103	0.706588	0.489888
	N744	N	0.286911	0.711973	0.488879
	O745	O	0.242210	0.716373	0.467289
	O746	O	0.317084	0.694022	0.522900
	C747	C	-0.008750	0.917661	0.429568
	C748	C	-0.014703	0.889309	0.412285
	C749	C	-0.004794	0.868315	0.428198
	C750	C	0.011305	0.875979	0.461459
	C751	C	0.019162	0.905624	0.477852
	C752	C	0.009841	0.926792	0.461827
	C753	C	-0.032939	0.886720	0.377668
	C754	C	-0.026577	0.932018	0.408342
	N755	N	-0.041234	0.911706	0.377643
	O756	O	-0.029418	0.955013	0.416086
	O757	O	-0.039970	0.867464	0.353617
	C758	C	0.018484	0.849057	0.471948
	C759	C	-0.010351	0.835291	0.417144
	N760	N	0.005047	0.825470	0.444146
	O761	O	-0.025041	0.819332	0.391269
	O762	O	0.032456	0.846249	0.498204
	C763	C	0.024307	0.957457	0.484386
	C764	C	0.036203	0.920042	0.513100
	N765	N	0.040915	0.952241	0.514125
	O766	O	0.044275	0.907501	0.536756
	O767	O	0.024080	0.982647	0.479059
	C768	C	0.242942	0.929792	0.308495
	C769	C	0.268765	0.935078	0.332769
	O770	O	0.296121	0.965331	0.335038
	C771	C	0.265522	0.909071	0.355541
	C772	C	0.235276	0.878448	0.355241
	O773	O	0.230534	0.853863	0.378845
	C774	C	0.209709	0.872599	0.330645
	C775	C	0.214868	0.897828	0.305794
	O776	O	0.191819	0.891525	0.279634
	H777	H	0.234881	0.838937	0.364002
	H778	H	0.197085	0.880117	0.260607
	H779	H	0.311082	0.967518	0.314695
	C780	C	-0.021000	0.737710	0.467151
	C781	C	-0.001795	0.732129	0.442324
	O782	O	-0.006698	0.701519	0.439390
	C783	C	0.021516	0.758122	0.419761
	C784	C	0.023095	0.788879	0.420177
	O785	O	0.043101	0.813303	0.396419
	C786	C	0.004104	0.794789	0.444740
	C787	C	-0.015804	0.769766	0.469991
	O788	O	-0.031409	0.776162	0.496499
	H789	H	0.062657	0.829077	0.411352
	H790	H	-0.013435	0.788623	0.514738
	H791	H	0.007716	0.699203	0.457931
	C792	C	0.066989	0.644061	0.868374
	C793	C	0.061702	0.663422	0.892848
	O794	O	0.030991	0.659099	0.896397
	C795	C	0.088183	0.686518	0.914381
	C796	C	0.118867	0.687295	0.913882
	O797	O	0.143647	0.707026	0.936869
	C798	C	0.124516	0.668135	0.889748
	C799	C	0.099035	0.648243	0.865547
	O800	O	0.105376	0.632874	0.838981
	H801	H	0.160482	0.725293	0.920817
	H802	H	0.119405	0.651013	0.821140
	H803	H	0.028294	0.671999	0.876144
	C804	C	0.071676	0.748439	0.681762
	C805	C	0.094603	0.777856	0.697871
	C806	C	0.125680	0.798943	0.681761
	C807	C	0.133521	0.790449	0.649253
	C808	C	0.111303	0.759752	0.634296
	C809	C	0.080934	0.738290	0.650835
	C810	C	0.079362	0.780985	0.731849
	C811	C	0.039239	0.734282	0.702375
	N812	N	0.045484	0.755550	0.732004
	O813	O	0.012739	0.710843	0.694990
	O814	O	0.092361	0.800604	0.755644
	C815	C	0.167896	0.817577	0.638146
	C816	C	0.153952	0.832619	0.691770
	N817	N	0.178908	0.842063	0.664844
	O818	O	0.156021	0.849105	0.717019
	O819	O	0.184198	0.819572	0.612212
	C820	C	0.064865	0.706176	0.630590
	C821	C	0.113296	0.744225	0.600327
	N822	N	0.086432	0.711183	0.600970
	O823	O	0.133372	0.756527	0.576164
	O824	O	0.039829	0.680661	0.637854
	C825	C	0.249594	0.657006	0.903917
	C826	C	0.219677	0.648568	0.920746
	C827	C	0.198424	0.658552	0.905454
	C828	C	0.207306	0.676828	0.873178
	C829	C	0.238193	0.686701	0.857195
	C830	C	0.259460	0.677104	0.872431
	C831	C	0.216269	0.628209	0.954271
	C832	C	0.264908	0.639894	0.924538
	N833	N	0.243255	0.622311	0.953926
	O834	O	0.289687	0.639297	0.917623
	O835	O	0.195477	0.618517	0.977619
	C836	C	0.180076	0.683804	0.862992
	C837	C	0.164490	0.652079	0.916472
	N838	N	0.155232	0.668543	0.890075
	O839	O	0.147547	0.636533	0.941954
	O840	O	0.177871	0.698933	0.837417
	C841	C	0.291528	0.693913	0.850847
	C842	C	0.254103	0.706588	0.823221
	N843	N	0.286911	0.711973	0.822212
	O844	O	0.242210	0.716373	0.800622
	O845	O	0.317084	0.694022	0.856233
	C846	C	-0.008750	0.917661	0.762901
	C847	C	-0.014703	0.889309	0.745618
	C848	C	-0.004794	0.868315	0.761532
	C849	C	0.011305	0.875979	0.794792
	C850	C	0.019162	0.905624	0.811186
	C851	C	0.009841	0.926792	0.795160
	C852	C	-0.032939	0.886720	0.711001
	C853	C	-0.026577	0.932018	0.741675
	N854	N	-0.041234	0.911706	0.710976
	O855	O	-0.029418	0.955013	0.749419
	O856	O	-0.039970	0.867464	0.686950
	C857	C	0.018484	0.849057	0.805282
	C858	C	-0.010351	0.835291	0.750477
	N859	N	0.005047	0.825470	0.777479
	O860	O	-0.025041	0.819332	0.724602
	O861	O	0.032456	0.846249	0.831537
	C862	C	0.024307	0.957457	0.817719
	C863	C	0.036203	0.920042	0.846433
	N864	N	0.040915	0.952241	0.847458
	O865	O	0.044275	0.907501	0.870090
	O866	O	0.024080	0.982647	0.812392
	C867	C	0.242942	0.929792	0.641829
	C868	C	0.268765	0.935078	0.666102
	O869	O	0.296121	0.965331	0.668371
	C870	C	0.265522	0.909071	0.688874
	C871	C	0.235276	0.878448	0.688574
	O872	O	0.230534	0.853863	0.712179
	C873	C	0.209709	0.872599	0.663978
	C874	C	0.214868	0.897828	0.639128
	O875	O	0.191819	0.891525	0.612968
	H876	H	0.234881	0.838937	0.697335
	H877	H	0.197085	0.880117	0.593941
	H878	H	0.311082	0.967518	0.648028
	C879	C	-0.021000	0.737710	0.800485
	C880	C	-0.001795	0.732129	0.775657
	O881	O	-0.006698	0.701519	0.772723
	C882	C	0.021516	0.758122	0.753094
	C883	C	0.023095	0.788879	0.753511
	O884	O	0.043101	0.813303	0.729753
	C885	C	0.004104	0.794789	0.778073
	C886	C	-0.015804	0.769766	0.803324
	O887	O	-0.031409	0.776162	0.829832
	H888	H	0.062657	0.829077	0.744686
	H889	H	-0.013435	0.788623	0.848071
	H890	H	0.007716	0.699203	0.791264
	C891	C	0.400323	-0.022605	0.201707
	C892	C	0.395035	-0.003245	0.226182
	O893	O	0.364324	-0.007567	0.229731
	C894	C	0.421516	0.019851	0.247714
	C895	C	0.452200	0.020629	0.247215
	O896	O	0.476981	0.040359	0.270202
	C897	C	0.457850	0.001468	0.223082
	C898	C	0.432368	-0.018424	0.198880
	O899	O	0.438710	-0.033792	0.172314
	H900	H	0.493815	0.058627	0.254150
	H901	H	0.452738	-0.015654	0.154473
	H902	H	0.361627	0.005332	0.209477
	C903	C	0.405009	0.081773	0.015095
	C904	C	0.427936	0.111190	0.031204
	C905	C	0.459014	0.132276	0.015095
	C906	C	0.466854	0.123782	-0.017413
	C907	C	0.444636	0.093085	-0.032371
	C908	C	0.414268	0.071623	-0.015832
	C909	C	0.412696	0.114318	0.065183
	C910	C	0.372572	0.067615	0.035709
	N911	N	0.378818	0.088883	0.065337
	O912	O	0.346073	0.044176	0.028323
	O913	O	0.425695	0.133938	0.088977
	C914	C	0.501229	0.150910	-0.028520
	C915	C	0.487285	0.165952	0.025104
	N916	N	0.512241	0.175397	-0.001823
	O917	O	0.489355	0.182438	0.050352
	O918	O	0.517531	0.152905	-0.054454
	C919	C	0.398198	0.039509	-0.036076
	C920	C	0.446629	0.077558	-0.066340
	N921	N	0.419766	0.044516	-0.065697
	O922	O	0.466705	0.089860	-0.090503
	O923	O	0.373162	0.013994	-0.028812
	C924	C	0.582927	-0.009660	0.237250
	C925	C	0.553010	-0.018098	0.254079
	C926	C	0.531757	-0.008114	0.238788
	C927	C	0.540639	0.010162	0.206511
	C928	C	0.571527	0.020034	0.190529
	C929	C	0.592794	0.010438	0.205765
	C930	C	0.549603	-0.038458	0.287604
	C931	C	0.598242	-0.026773	0.257871
	N932	N	0.576588	-0.044356	0.287259
	O933	O	0.623020	-0.027369	0.250956
	O934	O	0.528811	-0.048150	0.310952
	C935	C	0.513409	0.017137	0.196325
	C936	C	0.497824	-0.014588	0.249805
	N937	N	0.488565	0.001876	0.223408
	O938	O	0.480880	-0.030134	0.275287
	O939	O	0.511204	0.032266	0.170750
	C940	C	0.624861	0.027247	0.184181
	C941	C	0.587437	0.039922	0.156554
	N942	N	0.620244	0.045306	0.155546
	O943	O	0.575543	0.049706	0.133956
	O944	O	0.650417	0.027356	0.189567
	C945	C	0.324584	0.250995	0.096235
	C946	C	0.318630	0.222643	0.078952
	C947	C	0.328540	0.201648	0.094865
	C948	C	0.344639	0.209313	0.128125
	C949	C	0.352496	0.238957	0.144519
	C950	C	0.343175	0.260126	0.128493
	C951	C	0.300394	0.220054	0.044335
	C952	C	0.306757	0.265352	0.075009
	N953	N	0.292100	0.245039	0.044309
	O954	O	0.303915	0.288346	0.082753
	O955	O	0.293363	0.200798	0.020283
	C956	C	0.351817	0.182390	0.138615
	C957	C	0.322983	0.168624	0.083810
	N958	N	0.338380	0.158803	0.110813
	O959	O	0.308292	0.152665	0.057935
	O960	O	0.365789	0.179583	0.164871
	C961	C	0.357640	0.290791	0.151052
	C962	C	0.369537	0.253376	0.179766
	N963	N	0.374249	0.285574	0.180792
	O964	O	0.377609	0.240835	0.203423
	O965	O	0.357413	0.315980	0.145725
	C966	C	0.576276	0.263125	-0.024838
	C967	C	0.602098	0.268411	-0.000564
	O968	O	0.629454	0.298664	0.001705
	C969	C	0.598855	0.242404	0.022208
	C970	C	0.568609	0.211781	0.021907
	O971	O	0.563867	0.187196	0.045512
	C972	C	0.543042	0.205932	-0.002689
	C973	C	0.548201	0.231161	-0.027539
	O974	O	0.525152	0.224859	-0.053699
	H975	H	0.568214	0.172270	0.030668
	H976	H	0.530418	0.213451	-0.072726
	H977	H	0.644416	0.300851	-0.018638
	C978	C	0.312333	0.071043	0.133818
	C979	C	0.331539	0.065463	0.108991
	O980	O	0.326635	0.034852	0.106056
	C981	C	0.354849	0.091455	0.086428
	C982	C	0.356428	0.122212	0.086844
	O983	O	0.376434	0.146636	0.063086
	C984	C	0.337438	0.128123	0.111406
	C985	C	0.317529	0.103099	0.136657
	O986	O	0.301924	0.109495	0.163165
	H987	H	0.395990	0.162410	0.078019
	H988	H	0.319899	0.121956	0.181404
	H989	H	0.341049	0.032536	0.124598
	C990	C	0.400323	-0.022605	0.535040
	C991	C	0.395035	-0.003245	0.559515
	O992	O	0.364324	-0.007567	0.563064
	C993	C	0.421516	0.019851	0.581047
	C994	C	0.452200	0.020629	0.580549
	O995	O	0.476981	0.040359	0.603535
	C996	C	0.457850	0.001468	0.556415
	C997	C	0.432368	-0.018424	0.532214
	O998	O	0.438710	-0.033792	0.505648
	H999	H	0.493815	0.058627	0.587483
	H1000	H	0.452738	-0.015654	0.487806
	H1001	H	0.361627	0.005332	0.542810
	C1002	C	0.405009	0.081773	0.348428
	C1003	C	0.427936	0.111190	0.364538
	C1004	C	0.459014	0.132276	0.348428
	C1005	C	0.466854	0.123782	0.315920
	C1006	C	0.444636	0.093085	0.300963
	C1007	C	0.414268	0.071623	0.317501
	C1008	C	0.412696	0.114318	0.398516
	C1009	C	0.372572	0.067615	0.369042
	N1010	N	0.378818	0.088883	0.398671
	O1011	O	0.346073	0.044176	0.361657
	O1012	O	0.425695	0.133938	0.422310
	C1013	C	0.501229	0.150910	0.304813
	C1014	C	0.487285	0.165952	0.358437
	N1015	N	0.512241	0.175397	0.331511
	O1016	O	0.489355	0.182438	0.383685
	O1017	O	0.517531	0.152905	0.278879
	C1018	C	0.398198	0.039509	0.297257
	C1019	C	0.446629	0.077558	0.266993
	N1020	N	0.419766	0.044516	0.267637
	O1021	O	0.466705	0.089860	0.242830
	O1022	O	0.373162	0.013994	0.304521
	C1023	C	0.582927	-0.009660	0.570583
	C1024	C	0.553010	-0.018098	0.587413
	C1025	C	0.531757	-0.008114	0.572121
	C1026	C	0.540639	0.010162	0.539844
	C1027	C	0.571527	0.020034	0.523862
	C1028	C	0.592794	0.010438	0.539098
	C1029	C	0.549603	-0.038458	0.620938
	C1030	C	0.598242	-0.026773	0.591205
	N1031	N	0.576588	-0.044356	0.620593
	O1032	O	0.623020	-0.027369	0.584290
	O1033	O	0.528811	-0.048150	0.644285
	C1034	C	0.513409	0.017137	0.529658
	C1035	C	0.497824	-0.014588	0.583138
	N1036	N	0.488565	0.001876	0.556742
	O1037	O	0.480880	-0.030134	0.608620
	O1038	O	0.511204	0.032266	0.504083
	C1039	C	0.624861	0.027247	0.517514
	C1040	C	0.587437	0.039922	0.489888
	N1041	N	0.620244	0.045306	0.488879
	O1042	O	0.575543	0.049706	0.467289
	O1043	O	0.650417	0.027356	0.522900
	C1044	C	0.324584	0.250995	0.429568
	C1045	C	0.318630	0.222643	0.412285
	C1046	C	0.328540	0.201648	0.428198
	C1047	C	0.344639	0.209313	0.461459
	C1048	C	0.352496	0.238957	0.477852
	C1049	C	0.343175	0.260126	0.461827
	C1050	C	0.300394	0.220054	0.377668
	C1051	C	0.306757	0.265352	0.408342
	N1052	N	0.292100	0.245039	0.377643
	O1053	O	0.303915	0.288346	0.416086
	O1054	O	0.293363	0.200798	0.353617
	C1055	C	0.351817	0.182390	0.471948
	C1056	C	0.322983	0.168624	0.417144
	N1057	N	0.338380	0.158803	0.444146
	O1058	O	0.308292	0.152665	0.391269
	O1059	O	0.365789	0.179583	0.498204
	C1060	C	0.357640	0.290791	0.484386
	C1061	C	0.369537	0.253376	0.513100
	N1062	N	0.374249	0.285574	0.514125
	O1063	O	0.377609	0.240835	0.536756
	O1064	O	0.357413	0.315980	0.479059
	C1065	C	0.576276	0.263125	0.308495
	C1066	C	0.602098	0.268411	0.332769
	O1067	O	0.629454	0.298664	0.335038
	C1068	C	0.598855	0.242404	0.355541
	C1069	C	0.568609	0.211781	0.355241
	O1070	O	0.563867	0.187196	0.378845
	C1071	C	0.543042	0.205932	0.330645
	C1072	C	0.548201	0.231161	0.305794
	O1073	O	0.525152	0.224859	0.279634
	H1074	H	0.568214	0.172270	0.364002
	H1075	H	0.530418	0.213451	0.260607
	H1076	H	0.644416	0.300851	0.314695
	C1077	C	0.312333	0.071043	0.467151
	C1078	C	0.331539	0.065463	0.442324
	O1079	O	0.326635	0.034852	0.439390
	C1080	C	0.354849	0.091455	0.419761
	C1081	C	0.356428	0.122212	0.420177
	O1082	O	0.376434	0.146636	0.396419
	C1083	C	0.337438	0.128123	0.444740
	C1084	C	0.317529	0.103099	0.469991
	O1085	O	0.301924	0.109495	0.496499
	H1086	H	0.395990	0.162410	0.411352
	H1087	H	0.319899	0.121956	0.514738
	H1088	H	0.341049	0.032536	0.457931
	C1089	C	0.400323	-0.022605	0.868374
	C1090	C	0.395035	-0.003245	0.892848
	O1091	O	0.364324	-0.007567	0.896397
	C1092	C	0.421516	0.019851	0.914381
	C1093	C	0.452200	0.020629	0.913882
	O1094	O	0.476981	0.040359	0.936869
	C1095	C	0.457850	0.001468	0.889748
	C1096	C	0.432368	-0.018424	0.865547
	O1097	O	0.438710	-0.033792	0.838981
	H1098	H	0.493815	0.058627	0.920817
	H1099	H	0.452738	-0.015654	0.821140
	H1100	H	0.361627	0.005332	0.876144
	C1101	C	0.405009	0.081773	0.681762
	C1102	C	0.427936	0.111190	0.697871
	C1103	C	0.459014	0.132276	0.681761
	C1104	C	0.466854	0.123782	0.649253
	C1105	C	0.444636	0.093085	0.634296
	C1106	C	0.414268	0.071623	0.650835
	C1107	C	0.412696	0.114318	0.731849
	C1108	C	0.372572	0.067615	0.702375
	N1109	N	0.378818	0.088883	0.732004
	O1110	O	0.346073	0.044176	0.694990
	O1111	O	0.425695	0.133938	0.755644
	C1112	C	0.501229	0.150910	0.638146
	C1113	C	0.487285	0.165952	0.691770
	N1114	N	0.512241	0.175397	0.664844
	O1115	O	0.489355	0.182438	0.717019
	O1116	O	0.517531	0.152905	0.612212
	C1117	C	0.398198	0.039509	0.630590
	C1118	C	0.446629	0.077558	0.600327
	N1119	N	0.419766	0.044516	0.600970
	O1120	O	0.466705	0.089860	0.576164
	O1121	O	0.373162	0.013994	0.637854
	C1122	C	0.582927	-0.009660	0.903917
	C1123	C	0.553010	-0.018098	0.920746
	C1124	C	0.531757	-0.008114	0.905454
	C1125	C	0.540639	0.010162	0.873178
	C1126	C	0.571527	0.020034	0.857195
	C1127	C	0.592794	0.010438	0.872431
	C1128	C	0.549603	-0.038458	0.954271
	C1129	C	0.598242	-0.026773	0.924538
	N1130	N	0.576588	-0.044356	0.953926
	O1131	O	0.623020	-0.027369	0.917623
	O1132	O	0.528811	-0.048150	0.977619
	C1133	C	0.513409	0.017137	0.862992
	C1134	C	0.497824	-0.014588	0.916472
	N1135	N	0.488565	0.001876	0.890075
	O1136	O	0.480880	-0.030134	0.941954
	O1137	O	0.511204	0.032266	0.837417
	C1138	C	0.624861	0.027247	0.850847
	C1139	C	0.587437	0.039922	0.823221
	N1140	N	0.620244	0.045306	0.822212
	O1141	O	0.575543	0.049706	0.800622
	O1142	O	0.650417	0.027356	0.856233
	C1143	C	0.324584	0.250995	0.762901
	C1144	C	0.318630	0.222643	0.745618
	C1145	C	0.328540	0.201648	0.761532
	C1146	C	0.344639	0.209313	0.794792
	C1147	C	0.352496	0.238957	0.811186
	C1148	C	0.343175	0.260126	0.795160
	C1149	C	0.300394	0.220054	0.711001
	C1150	C	0.306757	0.265352	0.741675
	N1151	N	0.292100	0.245039	0.710976
	O1152	O	0.303915	0.288346	0.749419
	O1153	O	0.293363	0.200798	0.686950
	C1154	C	0.351817	0.182390	0.805282
	C1155	C	0.322983	0.168624	0.750477
	N1156	N	0.338380	0.158803	0.777479
	O1157	O	0.308292	0.152665	0.724602
	O1158	O	0.365789	0.179583	0.831537
	C1159	C	0.357640	0.290791	0.817719
	C1160	C	0.369537	0.253376	0.846433
	N1161	N	0.374249	0.285574	0.847458
	O1162	O	0.377609	0.240835	0.870090
	O1163	O	0.357413	0.315980	0.812392
	C1164	C	0.576276	0.263125	0.641829
	C1165	C	0.602098	0.268411	0.666102
	O1166	O	0.629454	0.298664	0.668371
	C1167	C	0.598855	0.242404	0.688874
	C1168	C	0.568609	0.211781	0.688574
	O1169	O	0.563867	0.187196	0.712179
	C1170	C	0.543042	0.205932	0.663978
	C1171	C	0.548201	0.231161	0.639128
	O1172	O	0.525152	0.224859	0.612968
	H1173	H	0.568214	0.172270	0.697335
	H1174	H	0.530418	0.213451	0.593941
	H1175	H	0.644416	0.300851	0.648028
	C1176	C	0.312333	0.071043	0.800485
	C1177	C	0.331539	0.065463	0.775657
	O1178	O	0.326635	0.034852	0.772723
	C1179	C	0.354849	0.091455	0.753094
	C1180	C	0.356428	0.122212	0.753511
	O1181	O	0.376434	0.146636	0.729753
	C1182	C	0.337438	0.128123	0.778073
	C1183	C	0.317529	0.103099	0.803324
	O1184	O	0.301924	0.109495	0.829832
	H1185	H	0.395990	0.162410	0.744686
	H1186	H	0.319899	0.121956	0.848071
	H1187	H	0.341049	0.032536	0.791264
	C1188	C	0.400323	0.310728	0.201707
	C1189	C	0.395035	0.330088	0.226182
	O1190	O	0.364324	0.325766	0.229731
	C1191	C	0.421516	0.353185	0.247714
	C1192	C	0.452200	0.353962	0.247215
	O1193	O	0.476981	0.373693	0.270202
	C1194	C	0.457850	0.334801	0.223082
	C1195	C	0.432368	0.314910	0.198880
	O1196	O	0.438710	0.299541	0.172314
	H1197	H	0.493815	0.391960	0.254150
	H1198	H	0.452738	0.317679	0.154473
	H1199	H	0.361627	0.338666	0.209477
	C1200	C	0.405009	0.415106	0.015095
	C1201	C	0.427936	0.444523	0.031204
	C1202	C	0.459014	0.465609	0.015095
	C1203	C	0.466854	0.457115	-0.017413
	C1204	C	0.444636	0.426419	-0.032371
	C1205	C	0.414268	0.404957	-0.015832
	C1206	C	0.412696	0.447652	0.065183
	C1207	C	0.372572	0.400948	0.035709
	N1208	N	0.378818	0.422217	0.065337
	O1209	O	0.346073	0.377510	0.028323
	O1210	O	0.425695	0.467271	0.088977
	C1211	C	0.501229	0.484244	-0.028520
	C1212	C	0.487285	0.499286	0.025104
	N1213	N	0.512241	0.508730	-0.001823
	O1214	O	0.489355	0.515772	0.050352
	O1215	O	0.517531	0.486239	-0.054454
	C1216	C	0.398198	0.372843	-0.036076
	C1217	C	0.446629	0.410891	-0.066340
	N1218	N	0.419766	0.377849	-0.065697
	O1219	O	0.466705	0.423193	-0.090503
	O1220	O	0.373162	0.347328	-0.028812
	C1221	C	0.582927	0.323673	0.237250
	C1222	C	0.553010	0.315235	0.254079
	C1223	C	0.531757	0.325219	0.238788
	C1224	C	0.540639	0.343495	0.206511
	C1225	C	0.571527	0.353367	0.190529
	C1226	C	0.592794	0.343771	0.205765
	C1227	C	0.549603	0.294876	0.287604
	C1228	C	0.598242	0.306561	0.257871
	N1229	N	0.576588	0.288978	0.287259
	O1230	O	0.623020	0.305964	0.250956
	O1231	O	0.528811	0.285183	0.310952
	C1232	C	0.513409	0.350471	0.196325
	C1233	C	0.497824	0.318745	0.249805
	N1234	N	0.488565	0.335209	0.223408
	O1235	O	0.480880	0.303200	0.275287
	O1236	O	0.511204	0.365599	0.170750
	C1237	C	0.624861	0.360580	0.184181
	C1238	C	0.587437	0.373255	0.156554
	N1239	N	0.620244	0.378639	0.155546
	O1240	O	0.575543	0.383040	0.133956
	O1241	O	0.650417	0.360689	0.189567
	C1242	C	0.324584	0.584328	0.096235
	C1243	C	0.318630	0.555976	0.078952
	C1244	C	0.328540	0.534982	0.094865
	C1245	C	0.344639	0.542646	0.128125
	C1246	C	0.352496	0.572291	0.144519
	C1247	C	0.343175	0.593459	0.128493
	C1248	C	0.300394	0.553387	0.044335
	C1249	C	0.306757	0.598685	0.075009
	N1250	N	0.292100	0.578373	0.044309
	O1251	O	0.303915	0.621680	0.082753
	O1252	O	0.293363	0.534131	0.020283
	C1253	C	0.351817	0.515723	0.138615
	C1254	C	0.322983	0.501957	0.083810
	N1255	N	0.338380	0.492137	0.110813
	O1256	O	0.308292	0.485999	0.057935
	O1257	O	0.365789	0.512916	0.164871
	C1258	C	0.357640	0.624124	0.151052
	C1259	C	0.369537	0.586709	0.179766
	N1260	N	0.374249	0.618907	0.180792
	O1261	O	0.377609	0.574168	0.203423
	O1262	O	0.357413	0.649314	0.145725
	C1263	C	0.576276	0.596458	-0.024838
	C1264	C	0.602098	0.601744	-0.000564
	O1265	O	0.629454	0.631997	0.001705
	C1266	C	0.598855	0.575738	0.022208
	C1267	C	0.568609	0.545114	0.021907
	O1268	O	0.563867	0.520530	0.045512
	C1269	C	0.543042	0.539266	-0.002689
	C1270	C	0.548201	0.564495	-0.027539
	O1271	O	0.525152	0.558192	-0.053699
	H1272	H	0.568214	0.505603	0.030668
	H1273	H	0.530418	0.546784	-0.072726
	H1274	H	0.644416	0.634185	-0.018638
	C1275	C	0.312333	0.404377	0.133818
	C1276	C	0.331539	0.398796	0.108991
	O1277	O	0.326635	0.368186	0.106056
	C1278	C	0.354849	0.424789	0.086428
	C1279	C	0.356428	0.455546	0.086844
	O1280	O	0.376434	0.479970	0.063086
	C1281	C	0.337438	0.461456	0.111406
	C1282	C	0.317529	0.436433	0.136657
	O1283	O	0.301924	0.442828	0.163165
	H1284	H	0.395990	0.495743	0.078019
	H1285	H	0.319899	0.455289	0.181404
	H1286	H	0.341049	0.365870	0.124598
	C1287	C	0.400323	0.310728	0.535040
	C1288	C	0.395035	0.330088	0.559515
	O1289	O	0.364324	0.325766	0.563064
	C1290	C	0.421516	0.353185	0.581047
	C1291	C	0.452200	0.353962	0.580549
	O1292	O	0.476981	0.373693	0.603535
	C1293	C	0.457850	0.334801	0.556415
	C1294	C	0.432368	0.314910	0.532214
	O1295	O	0.438710	0.299541	0.505648
	H1296	H	0.493815	0.391960	0.587483
	H1297	H	0.452738	0.317679	0.487806
	H1298	H	0.361627	0.338666	0.542810
	C1299	C	0.405009	0.415106	0.348428
	C1300	C	0.427936	0.444523	0.364538
	C1301	C	0.459014	0.465609	0.348428
	C1302	C	0.466854	0.457115	0.315920
	C1303	C	0.444636	0.426419	0.300963
	C1304	C	0.414268	0.404957	0.317501
	C1305	C	0.412696	0.447652	0.398516
	C1306	C	0.372572	0.400948	0.369042
	N1307	N	0.378818	0.422217	0.398671
	O1308	O	0.346073	0.377510	0.361657
	O1309	O	0.425695	0.467271	0.422310
	C1310	C	0.501229	0.484244	0.304813
	C1311	C	0.487285	0.499286	0.358437
	N1312	N	0.512241	0.508730	0.331511
	O1313	O	0.489355	0.515772	0.383685
	O1314	O	0.517531	0.486239	0.278879
	C1315	C	0.398198	0.372843	0.297257
	C1316	C	0.446629	0.410891	0.266993
	N1317	N	0.419766	0.377849	0.267637
	O1318	O	0.466705	0.423193	0.242830
	O1319	O	0.373162	0.347328	0.304521
	C1320	C	0.582927	0.323673	0.570583
	C1321	C	0.553010	0.315235	0.587413
	C1322	C	0.531757	0.325219	0.572121
	C1323	C	0.540639	0.343495	0.539844
	C1324	C	0.571527	0.353367	0.523862
	C1325	C	0.592794	0.343771	0.539098
	C1326	C	0.549603	0.294876	0.620938
	C1327	C	0.598242	0.306561	0.591205
	N1328	N	0.576588	0.288978	0.620593
	O1329	O	0.623020	0.305964	0.584290
	O1330	O	0.528811	0.285183	0.644285
	C1331	C	0.513409	0.350471	0.529658
	C1332	C	0.497824	0.318745	0.583138
	N1333	N	0.488565	0.335209	0.556742
	O1334	O	0.480880	0.303200	0.608620
	O1335	O	0.511204	0.365599	0.504083
	C1336	C	0.624861	0.360580	0.517514
	C1337	C	0.587437	0.373255	0.489888
	N1338	N	0.620244	0.378639	0.488879
	O1339	O	0.575543	0.383040	0.467289
	O1340	O	0.650417	0.360689	0.522900
	C1341	C	0.324584	0.584328	0.429568
	C1342	C	0.318630	0.555976	0.412285
	C1343	C	0.328540	0.534982	0.428198
	C1344	C	0.344639	0.542646	0.461459
	C1345	C	0.352496	0.572291	0.477852
	C1346	C	0.343175	0.593459	0.461827
	C1347	C	0.300394	0.553387	0.377668
	C1348	C	0.306757	0.598685	0.408342
	N1349	N	0.292100	0.578373	0.377643
	O1350	O	0.303915	0.621680	0.416086
	O1351	O	0.293363	0.534131	0.353617
	C1352	C	0.351817	0.515723	0.471948
	C1353	C	0.322983	0.501957	0.417144
	N1354	N	0.338380	0.492137	0.444146
	O1355	O	0.308292	0.485999	0.391269
	O1356	O	0.365789	0.512916	0.498204
	C1357	C	0.357640	0.624124	0.484386
	C1358	C	0.369537	0.586709	0.513100
	N1359	N	0.374249	0.618907	0.514125
	O1360	O	0.377609	0.574168	0.536756
	O1361	O	0.357413	0.649314	0.479059
	C1362	C	0.576276	0.596458	0.308495
	C1363	C	0.602098	0.601744	0.332769
	O1364	O	0.629454	0.631997	0.335038
	C1365	C	0.598855	0.575738	0.355541
	C1366	C	0.568609	0.545114	0.355241
	O1367	O	0.563867	0.520530	0.378845
	C1368	C	0.543042	0.539266	0.330645
	C1369	C	0.548201	0.564495	0.305794
	O1370	O	0.525152	0.558192	0.279634
	H1371	H	0.568214	0.505603	0.364002
	H1372	H	0.530418	0.546784	0.260607
	H1373	H	0.644416	0.634185	0.314695
	C1374	C	0.312333	0.404377	0.467151
	C1375	C	0.331539	0.398796	0.442324
	O1376	O	0.326635	0.368186	0.439390
	C1377	C	0.354849	0.424789	0.419761
	C1378	C	0.356428	0.455546	0.420177
	O1379	O	0.376434	0.479970	0.396419
	C1380	C	0.337438	0.461456	0.444740
	C1381	C	0.317529	0.436433	0.469991
	O1382	O	0.301924	0.442828	0.496499
	H1383	H	0.395990	0.495743	0.411352
	H1384	H	0.319899	0.455289	0.514738
	H1385	H	0.341049	0.365870	0.457931
	C1386	C	0.400323	0.310728	0.868374
	C1387	C	0.395035	0.330088	0.892848
	O1388	O	0.364324	0.325766	0.896397
	C1389	C	0.421516	0.353185	0.914381
	C1390	C	0.452200	0.353962	0.913882
	O1391	O	0.476981	0.373693	0.936869
	C1392	C	0.457850	0.334801	0.889748
	C1393	C	0.432368	0.314910	0.865547
	O1394	O	0.438710	0.299541	0.838981
	H1395	H	0.493815	0.391960	0.920817
	H1396	H	0.452738	0.317679	0.821140
	H1397	H	0.361627	0.338666	0.876144
	C1398	C	0.405009	0.415106	0.681762
	C1399	C	0.427936	0.444523	0.697871
	C1400	C	0.459014	0.465609	0.681761
	C1401	C	0.466854	0.457115	0.649253
	C1402	C	0.444636	0.426419	0.634296
	C1403	C	0.414268	0.404957	0.650835
	C1404	C	0.412696	0.447652	0.731849
	C1405	C	0.372572	0.400948	0.702375
	N1406	N	0.378818	0.422217	0.732004
	O1407	O	0.346073	0.377510	0.694990
	O1408	O	0.425695	0.467271	0.755644
	C1409	C	0.501229	0.484244	0.638146
	C1410	C	0.487285	0.499286	0.691770
	N1411	N	0.512241	0.508730	0.664844
	O1412	O	0.489355	0.515772	0.717019
	O1413	O	0.517531	0.486239	0.612212
	C1414	C	0.398198	0.372843	0.630590
	C1415	C	0.446629	0.410891	0.600327
	N1416	N	0.419766	0.377849	0.600970
	O1417	O	0.466705	0.423193	0.576164
	O1418	O	0.373162	0.347328	0.637854
	C1419	C	0.582927	0.323673	0.903917
	C1420	C	0.553010	0.315235	0.920746
	C1421	C	0.531757	0.325219	0.905454
	C1422	C	0.540639	0.343495	0.873178
	C1423	C	0.571527	0.353367	0.857195
	C1424	C	0.592794	0.343771	0.872431
	C1425	C	0.549603	0.294876	0.954271
	C1426	C	0.598242	0.306561	0.924538
	N1427	N	0.576588	0.288978	0.953926
	O1428	O	0.623020	0.305964	0.917623
	O1429	O	0.528811	0.285183	0.977619
	C1430	C	0.513409	0.350471	0.862992
	C1431	C	0.497824	0.318745	0.916472
	N1432	N	0.488565	0.335209	0.890075
	O1433	O	0.480880	0.303200	0.941954
	O1434	O	0.511204	0.365599	0.837417
	C1435	C	0.624861	0.360580	0.850847
	C1436	C	0.587437	0.373255	0.823221
	N1437	N	0.620244	0.378639	0.822212
	O1438	O	0.575543	0.383040	0.800622
	O1439	O	0.650417	0.360689	0.856233
	C1440	C	0.324584	0.584328	0.762901
	C1441	C	0.318630	0.555976	0.745618
	C1442	C	0.328540	0.534982	0.761532
	C1443	C	0.344639	0.542646	0.794792
	C1444	C	0.352496	0.572291	0.811186
	C1445	C	0.343175	0.593459	0.795160
	C1446	C	0.300394	0.553387	0.711001
	C1447	C	0.306757	0.598685	0.741675
	N1448	N	0.292100	0.578373	0.710976
	O1449	O	0.303915	0.621680	0.749419
	O1450	O	0.293363	0.534131	0.686950
	C1451	C	0.351817	0.515723	0.805282
	C1452	C	0.322983	0.501957	0.750477
	N1453	N	0.338380	0.492137	0.777479
	O1454	O	0.308292	0.485999	0.724602
	O1455	O	0.365789	0.512916	0.831537
	C1456	C	0.357640	0.624124	0.817719
	C1457	C	0.369537	0.586709	0.846433
	N1458	N	0.374249	0.618907	0.847458
	O1459	O	0.377609	0.574168	0.870090
	O1460	O	0.357413	0.649314	0.812392
	C1461	C	0.576276	0.596458	0.641829
	C1462	C	0.602098	0.601744	0.666102
	O1463	O	0.629454	0.631997	0.668371
	C1464	C	0.598855	0.575738	0.688874
	C1465	C	0.568609	0.545114	0.688574
	O1466	O	0.563867	0.520530	0.712179
	C1467	C	0.543042	0.539266	0.663978
	C1468	C	0.548201	0.564495	0.639128
	O1469	O	0.525152	0.558192	0.612968
	H1470	H	0.568214	0.505603	0.697335
	H1471	H	0.530418	0.546784	0.593941
	H1472	H	0.644416	0.634185	0.648028
	C1473	C	0.312333	0.404377	0.800485
	C1474	C	0.331539	0.398796	0.775657
	O1475	O	0.326635	0.368186	0.772723
	C1476	C	0.354849	0.424789	0.753094
	C1477	C	0.356428	0.455546	0.753511
	O1478	O	0.376434	0.479970	0.729753
	C1479	C	0.337438	0.461456	0.778073
	C1480	C	0.317529	0.436433	0.803324
	O1481	O	0.301924	0.442828	0.829832
	H1482	H	0.395990	0.495743	0.744686
	H1483	H	0.319899	0.455289	0.848071
	H1484	H	0.341049	0.365870	0.791264
	C1485	C	0.400323	0.644061	0.201707
	C1486	C	0.395035	0.663422	0.226182
	O1487	O	0.364324	0.659099	0.229731
	C1488	C	0.421516	0.686518	0.247714
	C1489	C	0.452200	0.687295	0.247215
	O1490	O	0.476981	0.707026	0.270202
	C1491	C	0.457850	0.668135	0.223082
	C1492	C	0.432368	0.648243	0.198880
	O1493	O	0.438710	0.632874	0.172314
	H1494	H	0.493815	0.725293	0.254150
	H1495	H	0.452738	0.651013	0.154473
	H1496	H	0.361627	0.671999	0.209477
	C1497	C	0.405009	0.748439	0.015095
	C1498	C	0.427936	0.777856	0.031204
	C1499	C	0.459014	0.798943	0.015095
	C1500	C	0.466854	0.790449	-0.017413
	C1501	C	0.444636	0.759752	-0.032371
	C1502	C	0.414268	0.738290	-0.015832
	C1503	C	0.412696	0.780985	0.065183
	C1504	C	0.372572	0.734282	0.035709
	N1505	N	0.378818	0.755550	0.065337
	O1506	O	0.346073	0.710843	0.028323
	O1507	O	0.425695	0.800604	0.088977
	C1508	C	0.501229	0.817577	-0.028520
	C1509	C	0.487285	0.832619	0.025104
	N1510	N	0.512241	0.842063	-0.001823
	O1511	O	0.489355	0.849105	0.050352
	O1512	O	0.517531	0.819572	-0.054454
	C1513	C	0.398198	0.706176	-0.036076
	C1514	C	0.446629	0.744225	-0.066340
	N1515	N	0.419766	0.711183	-0.065697
	O1516	O	0.466705	0.756527	-0.090503
	O1517	O	0.373162	0.680661	-0.028812
	C1518	C	0.582927	0.657006	0.237250
	C1519	C	0.553010	0.648568	0.254079
	C1520	C	0.531757	0.658552	0.238788
	C1521	C	0.540639	0.676828	0.206511
	C1522	C	0.571527	0.686701	0.190529
	C1523	C	0.592794	0.677104	0.205765
	C1524	C	0.549603	0.628209	0.287604
	C1525	C	0.598242	0.639894	0.257871
	N1526	N	0.576588	0.622311	0.287259
	O1527	O	0.623020	0.639297	0.250956
	O1528	O	0.528811	0.618517	0.310952
	C1529	C	0.513409	0.683804	0.196325
	C1530	C	0.497824	0.652079	0.249805
	N1531	N	0.488565	0.668543	0.223408
	O1532	O	0.480880	0.636533	0.275287
	O1533	O	0.511204	0.698933	0.170750
	C1534	C	0.624861	0.693913	0.184181
	C1535	C	0.587437	0.706588	0.156554
	N1536	N	0.620244	0.711973	0.155546
	O1537	O	0.575543	0.716373	0.133956
	O1538	O	0.650417	0.694022	0.189567
	C1539	C	0.324584	0.917661	0.096235
	C1540	C	0.318630	0.889309	0.078952
	C1541	C	0.328540	0.868315	0.094865
	C1542	C	0.344639	0.875979	0.128125
	C1543	C	0.352496	0.905624	0.144519
	C1544	C	0.343175	0.926792	0.128493
	C1545	C	0.300394	0.886720	0.044335
	C1546	C	0.306757	0.932018	0.075009
	N1547	N	0.292100	0.911706	0.044309
	O1548	O	0.303915	0.955013	0.082753
	O1549	O	0.293363	0.867464	0.020283
	C1550	C	0.351817	0.849057	0.138615
	C1551	C	0.322983	0.835291	0.083810
	N1552	N	0.338380	0.825470	0.110813
	O1553	O	0.308292	0.819332	0.057935
	O1554	O	0.365789	0.846249	0.164871
	C1555	C	0.357640	0.957457	0.151052
	C1556	C	0.369537	0.920042	0.179766
	N1557	N	0.374249	0.952241	0.180792
	O1558	O	0.377609	0.907501	0.203423
	O1559	O	0.357413	0.982647	0.145725
	C1560	C	0.576276	0.929792	-0.024838
	C1561	C	0.602098	0.935078	-0.000564
	O1562	O	0.629454	0.965331	0.001705
	C1563	C	0.598855	0.909071	0.022208
	C1564	C	0.568609	0.878448	0.021907
	O1565	O	0.563867	0.853863	0.045512
	C1566	C	0.543042	0.872599	-0.002689
	C1567	C	0.548201	0.897828	-0.027539
	O1568	O	0.525152	0.891525	-0.053699
	H1569	H	0.568214	0.838937	0.030668
	H1570	H	0.530418	0.880117	-0.072726
	H1571	H	0.644416	0.967518	-0.018638
	C1572	C	0.312333	0.737710	0.133818
	C1573	C	0.331539	0.732129	0.108991
	O1574	O	0.326635	0.701519	0.106056
	C1575	C	0.354849	0.758122	0.086428
	C1576	C	0.356428	0.788879	0.086844
	O1577	O	0.376434	0.813303	0.063086
	C1578	C	0.337438	0.794789	0.111406
	C1579	C	0.317529	0.769766	0.136657
	O1580	O	0.301924	0.776162	0.163165
	H1581	H	0.395990	0.829077	0.078019
	H1582	H	0.319899	0.788623	0.181404
	H1583	H	0.341049	0.699203	0.124598
	C1584	C	0.400323	0.644061	0.535040
	C1585	C	0.395035	0.663422	0.559515
	O1586	O	0.364324	0.659099	0.563064
	C1587	C	0.421516	0.686518	0.581047
	C1588	C	0.452200	0.687295	0.580549
	O1589	O	0.476981	0.707026	0.603535
	C1590	C	0.457850	0.668135	0.556415
	C1591	C	0.432368	0.648243	0.532214
	O1592	O	0.438710	0.632874	0.505648
	H1593	H	0.493815	0.725293	0.587483
	H1594	H	0.452738	0.651013	0.487806
	H1595	H	0.361627	0.671999	0.542810
	C1596	C	0.405009	0.748439	0.348428
	C1597	C	0.427936	0.777856	0.364538
	C1598	C	0.459014	0.798943	0.348428
	C1599	C	0.466854	0.790449	0.315920
	C1600	C	0.444636	0.759752	0.300963
	C1601	C	0.414268	0.738290	0.317501
	C1602	C	0.412696	0.780985	0.398516
	C1603	C	0.372572	0.734282	0.369042
	N1604	N	0.378818	0.755550	0.398671
	O1605	O	0.346073	0.710843	0.361657
	O1606	O	0.425695	0.800604	0.422310
	C1607	C	0.501229	0.817577	0.304813
	C1608	C	0.487285	0.832619	0.358437
	N1609	N	0.512241	0.842063	0.331511
	O1610	O	0.489355	0.849105	0.383685
	O1611	O	0.517531	0.819572	0.278879
	C1612	C	0.398198	0.706176	0.297257
	C1613	C	0.446629	0.744225	0.266993
	N1614	N	0.419766	0.711183	0.267637
	O1615	O	0.466705	0.756527	0.242830
	O1616	O	0.373162	0.680661	0.304521
	C1617	C	0.582927	0.657006	0.570583
	C1618	C	0.553010	0.648568	0.587413
	C1619	C	0.531757	0.658552	0.572121
	C1620	C	0.540639	0.676828	0.539844
	C1621	C	0.571527	0.686701	0.523862
	C1622	C	0.592794	0.677104	0.539098
	C1623	C	0.549603	0.628209	0.620938
	C1624	C	0.598242	0.639894	0.591205
	N1625	N	0.576588	0.622311	0.620593
	O1626	O	0.623020	0.639297	0.584290
	O1627	O	0.528811	0.618517	0.644285
	C1628	C	0.513409	0.683804	0.529658
	C1629	C	0.497824	0.652079	0.583138
	N1630	N	0.488565	0.668543	0.556742
	O1631	O	0.480880	0.636533	0.608620
	O1632	O	0.511204	0.698933	0.504083
	C1633	C	0.624861	0.693913	0.517514
	C1634	C	0.587437	0.706588	0.489888
	N1635	N	0.620244	0.711973	0.488879
	O1636	O	0.575543	0.716373	0.467289
	O1637	O	0.650417	0.694022	0.522900
	C1638	C	0.324584	0.917661	0.429568
	C1639	C	0.318630	0.889309	0.412285
	C1640	C	0.328540	0.868315	0.428198
	C1641	C	0.344639	0.875979	0.461459
	C1642	C	0.352496	0.905624	0.477852
	C1643	C	0.343175	0.926792	0.461827
	C1644	C	0.300394	0.886720	0.377668
	C1645	C	0.306757	0.932018	0.408342
	N1646	N	0.292100	0.911706	0.377643
	O1647	O	0.303915	0.955013	0.416086
	O1648	O	0.293363	0.867464	0.353617
	C1649	C	0.351817	0.849057	0.471948
	C1650	C	0.322983	0.835291	0.417144
	N1651	N	0.338380	0.825470	0.444146
	O1652	O	0.308292	0.819332	0.391269
	O1653	O	0.365789	0.846249	0.498204
	C1654	C	0.357640	0.957457	0.484386
	C1655	C	0.369537	0.920042	0.513100
	N1656	N	0.374249	0.952241	0.514125
	O1657	O	0.377609	0.907501	0.536756
	O1658	O	0.357413	0.982647	0.479059
	C1659	C	0.576276	0.929792	0.308495
	C1660	C	0.602098	0.935078	0.332769
	O1661	O	0.629454	0.965331	0.335038
	C1662	C	0.598855	0.909071	0.355541
	C1663	C	0.568609	0.878448	0.355241
	O1664	O	0.563867	0.853863	0.378845
	C1665	C	0.543042	0.872599	0.330645
	C1666	C	0.548201	0.897828	0.305794
	O1667	O	0.525152	0.891525	0.279634
	H1668	H	0.568214	0.838937	0.364002
	H1669	H	0.530418	0.880117	0.260607
	H1670	H	0.644416	0.967518	0.314695
	C1671	C	0.312333	0.737710	0.467151
	C1672	C	0.331539	0.732129	0.442324
	O1673	O	0.326635	0.701519	0.439390
	C1674	C	0.354849	0.758122	0.419761
	C1675	C	0.356428	0.788879	0.420177
	O1676	O	0.376434	0.813303	0.396419
	C1677	C	0.337438	0.794789	0.444740
	C1678	C	0.317529	0.769766	0.469991
	O1679	O	0.301924	0.776162	0.496499
	H1680	H	0.395990	0.829077	0.411352
	H1681	H	0.319899	0.788623	0.514738
	H1682	H	0.341049	0.699203	0.457931
	C1683	C	0.400323	0.644061	0.868374
	C1684	C	0.395035	0.663422	0.892848
	O1685	O	0.364324	0.659099	0.896397
	C1686	C	0.421516	0.686518	0.914381
	C1687	C	0.452200	0.687295	0.913882
	O1688	O	0.476981	0.707026	0.936869
	C1689	C	0.457850	0.668135	0.889748
	C1690	C	0.432368	0.648243	0.865547
	O1691	O	0.438710	0.632874	0.838981
	H1692	H	0.493815	0.725293	0.920817
	H1693	H	0.452738	0.651013	0.821140
	H1694	H	0.361627	0.671999	0.876144
	C1695	C	0.405009	0.748439	0.681762
	C1696	C	0.427936	0.777856	0.697871
	C1697	C	0.459014	0.798943	0.681761
	C1698	C	0.466854	0.790449	0.649253
	C1699	C	0.444636	0.759752	0.634296
	C1700	C	0.414268	0.738290	0.650835
	C1701	C	0.412696	0.780985	0.731849
	C1702	C	0.372572	0.734282	0.702375
	N1703	N	0.378818	0.755550	0.732004
	O1704	O	0.346073	0.710843	0.694990
	O1705	O	0.425695	0.800604	0.755644
	C1706	C	0.501229	0.817577	0.638146
	C1707	C	0.487285	0.832619	0.691770
	N1708	N	0.512241	0.842063	0.664844
	O1709	O	0.489355	0.849105	0.717019
	O1710	O	0.517531	0.819572	0.612212
	C1711	C	0.398198	0.706176	0.630590
	C1712	C	0.446629	0.744225	0.600327
	N1713	N	0.419766	0.711183	0.600970
	O1714	O	0.466705	0.756527	0.576164
	O1715	O	0.373162	0.680661	0.637854
	C1716	C	0.582927	0.657006	0.903917
	C1717	C	0.553010	0.648568	0.920746
	C1718	C	0.531757	0.658552	0.905454
	C1719	C	0.540639	0.676828	0.873178
	C1720	C	0.571527	0.686701	0.857195
	C1721	C	0.592794	0.677104	0.872431
	C1722	C	0.549603	0.628209	0.954271
	C1723	C	0.598242	0.639894	0.924538
	N1724	N	0.576588	0.622311	0.953926
	O1725	O	0.623020	0.639297	0.917623
	O1726	O	0.528811	0.618517	0.977619
	C1727	C	0.513409	0.683804	0.862992
	C1728	C	0.497824	0.652079	0.916472
	N1729	N	0.488565	0.668543	0.890075
	O1730	O	0.480880	0.636533	0.941954
	O1731	O	0.511204	0.698933	0.837417
	C1732	C	0.624861	0.693913	0.850847
	C1733	C	0.587437	0.706588	0.823221
	N1734	N	0.620244	0.711973	0.822212
	O1735	O	0.575543	0.716373	0.800622
	O1736	O	0.650417	0.694022	0.856233
	C1737	C	0.324584	0.917661	0.762901
	C1738	C	0.318630	0.889309	0.745618
	C1739	C	0.328540	0.868315	0.761532
	C1740	C	0.344639	0.875979	0.794792
	C1741	C	0.352496	0.905624	0.811186
	C1742	C	0.343175	0.926792	0.795160
	C1743	C	0.300394	0.886720	0.711001
	C1744	C	0.306757	0.932018	0.741675
	N1745	N	0.292100	0.911706	0.710976
	O1746	O	0.303915	0.955013	0.749419
	O1747	O	0.293363	0.867464	0.686950
	C1748	C	0.351817	0.849057	0.805282
	C1749	C	0.322983	0.835291	0.750477
	N1750	N	0.338380	0.825470	0.777479
	O1751	O	0.308292	0.819332	0.724602
	O1752	O	0.365789	0.846249	0.831537
	C1753	C	0.357640	0.957457	0.817719
	C1754	C	0.369537	0.920042	0.846433
	N1755	N	0.374249	0.952241	0.847458
	O1756	O	0.377609	0.907501	0.870090
	O1757	O	0.357413	0.982647	0.812392
	C1758	C	0.576276	0.929792	0.641829
	C1759	C	0.602098	0.935078	0.666102
	O1760	O	0.629454	0.965331	0.668371
	C1761	C	0.598855	0.909071	0.688874
	C1762	C	0.568609	0.878448	0.688574
	O1763	O	0.563867	0.853863	0.712179
	C1764	C	0.543042	0.872599	0.663978
	C1765	C	0.548201	0.897828	0.639128
	O1766	O	0.525152	0.891525	0.612968
	H1767	H	0.568214	0.838937	0.697335
	H1768	H	0.530418	0.880117	0.593941
	H1769	H	0.644416	0.967518	0.648028
	C1770	C	0.312333	0.737710	0.800485
	C1771	C	0.331539	0.732129	0.775657
	O1772	O	0.326635	0.701519	0.772723
	C1773	C	0.354849	0.758122	0.753094
	C1774	C	0.356428	0.788879	0.753511
	O1775	O	0.376434	0.813303	0.729753
	C1776	C	0.337438	0.794789	0.778073
	C1777	C	0.317529	0.769766	0.803324
	O1778	O	0.301924	0.776162	0.829832
	H1779	H	0.395990	0.829077	0.744686
	H1780	H	0.319899	0.788623	0.848071
	H1781	H	0.341049	0.699203	0.791264
	C1782	C	0.733656	-0.022605	0.201707
	C1783	C	0.728368	-0.003245	0.226182
	O1784	O	0.697657	-0.007567	0.229731
	C1785	C	0.754849	0.019851	0.247714
	C1786	C	0.785534	0.020629	0.247215
	O1787	O	0.810314	0.040359	0.270202
	C1788	C	0.791183	0.001468	0.223082
	C1789	C	0.765702	-0.018424	0.198880
	O1790	O	0.772043	-0.033792	0.172314
	H1791	H	0.827149	0.058627	0.254150
	H1792	H	0.786072	-0.015654	0.154473
	H1793	H	0.694961	0.005332	0.209477
	C1794	C	0.738343	0.081773	0.015095
	C1795	C	0.761269	0.111190	0.031204
	C1796	C	0.792347	0.132276	0.015095
	C1797	C	0.800188	0.123782	-0.017413
	C1798	C	0.777969	0.093085	-0.032371
	C1799	C	0.747601	0.071623	-0.015832
	C1800	C	0.746029	0.114318	0.065183
	C1801	C	0.705905	0.067615	0.035709
	N1802	N	0.712151	0.088883	0.065337
	O1803	O	0.679406	0.044176	0.028323
	O1804	O	0.759028	0.133938	0.088977
	C1805	C	0.834563	0.150910	-0.028520
	C1806	C	0.820619	0.165952	0.025104
	N1807	N	0.845574	0.175397	-0.001823
	O1808	O	0.822688	0.182438	0.050352
	O1809	O	0.850864	0.152905	-0.054454
	C1810	C	0.731532	0.039509	-0.036076
	C1811	C	0.779962	0.077558	-0.066340
	N1812	N	0.753099	0.044516	-0.065697
	O1813	O	0.800039	0.089860	-0.090503
	O1814	O	0.706496	0.013994	-0.028812
	C1815	C	0.916261	-0.009660	0.237250
	C1816	C	0.886344	-0.018098	0.254079
	C1817	C	0.865090	-0.008114	0.238788
	C1818	C	0.873972	0.010162	0.206511
	C1819	C	0.904860	0.020034	0.190529
	C1820	C	0.926127	0.010438	0.205765
	C1821	C	0.882936	-0.038458	0.287604
	C1822	C	0.931575	-0.026773	0.257871
	N1823	N	0.909922	-0.044356	0.287259
	O1824	O	0.956354	-0.027369	0.250956
	O1825	O	0.862144	-0.048150	0.310952
	C1826	C	0.846743	0.017137	0.196325
	C1827	C	0.831157	-0.014588	0.249805
	N1828	N	0.821899	0.001876	0.223408
	O1829	O	0.814214	-0.030134	0.275287
	O1830	O	0.844538	0.032266	0.170750
	C1831	C	0.958195	0.027247	0.184181
	C1832	C	0.920770	0.039922	0.156554
	N1833	N	0.953577	0.045306	0.155546
	O1834	O	0.908876	0.049706	0.133956
	O1835	O	0.983750	0.027356	0.189567
	C1836	C	0.657917	0.250995	0.096235
	C1837	C	0.651964	0.222643	0.078952
	C1838	C	0.661873	0.201648	0.094865
	C1839	C	0.677972	0.209313	0.128125
	C1840	C	0.685829	0.238957	0.144519
	C1841	C	0.676508	0.260126	0.128493
	C1842	C	0.633728	0.220054	0.044335
	C1843	C	0.640090	0.265352	0.075009
	N1844	N	0.625433	0.245039	0.044309
	O1845	O	0.637249	0.288346	0.082753
	O1846	O	0.626697	0.200798	0.020283
	C1847	C	0.685151	0.182390	0.138615
	C1848	C	0.656316	0.168624	0.083810
	N1849	N	0.671714	0.158803	0.110813
	O1850	O	0.641625	0.152665	0.057935
	O1851	O	0.699123	0.179583	0.164871
	C1852	C	0.690973	0.290791	0.151052
	C1853	C	0.702870	0.253376	0.179766
	N1854	N	0.707582	0.285574	0.180792
	O1855	O	0.710942	0.240835	0.203423
	O1856	O	0.690746	0.315980	0.145725
	C1857	C	0.909609	0.263125	-0.024838
	C1858	C	0.935431	0.268411	-0.000564
	O1859	O	0.962787	0.298664	0.001705
	C1860	C	0.932189	0.242404	0.022208
	C1861	C	0.901943	0.211781	0.021907
	O1862	O	0.897201	0.187196	0.045512
	C1863	C	0.876376	0.205932	-0.002689
	C1864	C	0.881535	0.231161	-0.027539
	O1865	O	0.858485	0.224859	-0.053699
	H1866	H	0.901547	0.172270	0.030668
	H1867	H	0.863751	0.213451	-0.072726
	H1868	H	0.977749	0.300851	-0.018638
	C1869	C	0.645667	0.071043	0.133818
	C1870	C	0.664872	0.065463	0.108991
	O1871	O	0.659969	0.034852	0.106056
	C1872	C	0.688183	0.091455	0.086428
	C1873	C	0.689762	0.122212	0.086844
	O1874	O	0.709767	0.146636	0.063086
	C1875	C	0.670771	0.128123	0.111406
	C1876	C	0.650863	0.103099	0.136657
	O1877	O	0.635258	0.109495	0.163165
	H1878	H	0.729323	0.162410	0.078019
	H1879	H	0.653232	0.121956	0.181404
	H1880	H	0.674383	0.032536	0.124598
	C1881	C	0.733656	-0.022605	0.535040
	C1882	C	0.728368	-0.003245	0.559515
	O1883	O	0.697657	-0.007567	0.563064
	C1884	C	0.754849	0.019851	0.581047
	C1885	C	0.785534	0.020629	0.580549
	O1886	O	0.810314	0.040359	0.603535
	C1887	C	0.791183	0.001468	0.556415
	C1888	C	0.765702	-0.018424	0.532214
	O1889	O	0.772043	-0.033792	0.505648
	H1890	H	0.827149	0.058627	0.587483
	H1891	H	0.786072	-0.015654	0.487806
	H1892	H	0.694961	0.005332	0.542810
	C1893	C	0.738343	0.081773	0.348428
	C1894	C	0.761269	0.111190	0.364538
	C1895	C	0.792347	0.132276	0.348428
	C1896	C	0.800188	0.123782	0.315920
	C1897	C	0.777969	0.093085	0.300963
	C1898	C	0.747601	0.071623	0.317501
	C1899	C	0.746029	0.114318	0.398516
	C1900	C	0.705905	0.067615	0.369042
	N1901	N	0.712151	0.088883	0.398671
	O1902	O	0.679406	0.044176	0.361657
	O1903	O	0.759028	0.133938	0.422310
	C1904	C	0.834563	0.150910	0.304813
	C1905	C	0.820619	0.165952	0.358437
	N1906	N	0.845574	0.175397	0.331511
	O1907	O	0.822688	0.182438	0.383685
	O1908	O	0.850864	0.152905	0.278879
	C1909	C	0.731532	0.039509	0.297257
	C1910	C	0.779962	0.077558	0.266993
	N1911	N	0.753099	0.044516	0.267637
	O1912	O	0.800039	0.089860	0.242830
	O1913	O	0.706496	0.013994	0.304521
	C1914	C	0.916261	-0.009660	0.570583
	C1915	C	0.886344	-0.018098	0.587413
	C1916	C	0.865090	-0.008114	0.572121
	C1917	C	0.873972	0.010162	0.539844
	C1918	C	0.904860	0.020034	0.523862
	C1919	C	0.926127	0.010438	0.539098
	C1920	C	0.882936	-0.038458	0.620938
	C1921	C	0.931575	-0.026773	0.591205
	N1922	N	0.909922	-0.044356	0.620593
	O1923	O	0.956354	-0.027369	0.584290
	O1924	O	0.862144	-0.048150	0.644285
	C1925	C	0.846743	0.017137	0.529658
	C1926	C	0.831157	-0.014588	0.583138
	N1927	N	0.821899	0.001876	0.556742
	O1928	O	0.814214	-0.030134	0.608620
	O1929	O	0.844538	0.032266	0.504083
	C1930	C	0.958195	0.027247	0.517514
	C1931	C	0.920770	0.039922	0.489888
	N1932	N	0.953577	0.045306	0.488879
	O1933	O	0.908876	0.049706	0.467289
	O1934	O	0.983750	0.027356	0.522900
	C1935	C	0.657917	0.250995	0.429568
	C1936	C	0.651964	0.222643	0.412285
	C1937	C	0.661873	0.201648	0.428198
	C1938	C	0.677972	0.209313	0.461459
	C1939	C	0.685829	0.238957	0.477852
	C1940	C	0.676508	0.260126	0.461827
	C1941	C	0.633728	0.220054	0.377668
	C1942	C	0.640090	0.265352	0.408342
	N1943	N	0.625433	0.245039	0.377643
	O1944	O	0.637249	0.288346	0.416086
	O1945	O	0.626697	0.200798	0.353617
	C1946	C	0.685151	0.182390	0.471948
	C1947	C	0.656316	0.168624	0.417144
	N1948	N	0.671714	0.158803	0.444146
	O1949	O	0.641625	0.152665	0.391269
	O1950	O	0.699123	0.179583	0.498204
	C1951	C	0.690973	0.290791	0.484386
	C1952	C	0.702870	0.253376	0.513100
	N1953	N	0.707582	0.285574	0.514125
	O1954	O	0.710942	0.240835	0.536756
	O1955	O	0.690746	0.315980	0.479059
	C1956	C	0.909609	0.263125	0.308495
	C1957	C	0.935431	0.268411	0.332769
	O1958	O	0.962787	0.298664	0.335038
	C1959	C	0.932189	0.242404	0.355541
	C1960	C	0.901943	0.211781	0.355241
	O1961	O	0.897201	0.187196	0.378845
	C1962	C	0.876376	0.205932	0.330645
	C1963	C	0.881535	0.231161	0.305794
	O1964	O	0.858485	0.224859	0.279634
	H1965	H	0.901547	0.172270	0.364002
	H1966	H	0.863751	0.213451	0.260607
	H1967	H	0.977749	0.300851	0.314695
	C1968	C	0.645667	0.071043	0.467151
	C1969	C	0.664872	0.065463	0.442324
	O1970	O	0.659969	0.034852	0.439390
	C1971	C	0.688183	0.091455	0.419761
	C1972	C	0.689762	0.122212	0.420177
	O1973	O	0.709767	0.146636	0.396419
	C1974	C	0.670771	0.128123	0.444740
	C1975	C	0.650863	0.103099	0.469991
	O1976	O	0.635258	0.109495	0.496499
	H1977	H	0.729323	0.162410	0.411352
	H1978	H	0.653232	0.121956	0.514738
	H1979	H	0.674383	0.032536	0.457931
	C1980	C	0.733656	-0.022605	0.868374
	C1981	C	0.728368	-0.003245	0.892848
	O1982	O	0.697657	-0.007567	0.896397
	C1983	C	0.754849	0.019851	0.914381
	C1984	C	0.785534	0.020629	0.913882
	O1985	O	0.810314	0.040359	0.936869
	C1986	C	0.791183	0.001468	0.889748
	C1987	C	0.765702	-0.018424	0.865547
	O1988	O	0.772043	-0.033792	0.838981
	H1989	H	0.827149	0.058627	0.920817
	H1990	H	0.786072	-0.015654	0.821140
	H1991	H	0.694961	0.005332	0.876144
	C1992	C	0.738343	0.081773	0.681762
	C1993	C	0.761269	0.111190	0.697871
	C1994	C	0.792347	0.132276	0.681761
	C1995	C	0.800188	0.123782	0.649253
	C1996	C	0.777969	0.093085	0.634296
	C1997	C	0.747601	0.071623	0.650835
	C1998	C	0.746029	0.114318	0.731849
	C1999	C	0.705905	0.067615	0.702375
	N2000	N	0.712151	0.088883	0.732004
	O2001	O	0.679406	0.044176	0.694990
	O2002	O	0.759028	0.133938	0.755644
	C2003	C	0.834563	0.150910	0.638146
	C2004	C	0.820619	0.165952	0.691770
	N2005	N	0.845574	0.175397	0.664844
	O2006	O	0.822688	0.182438	0.717019
	O2007	O	0.850864	0.152905	0.612212
	C2008	C	0.731532	0.039509	0.630590
	C2009	C	0.779962	0.077558	0.600327
	N2010	N	0.753099	0.044516	0.600970
	O2011	O	0.800039	0.089860	0.576164
	O2012	O	0.706496	0.013994	0.637854
	C2013	C	0.916261	-0.009660	0.903917
	C2014	C	0.886344	-0.018098	0.920746
	C2015	C	0.865090	-0.008114	0.905454
	C2016	C	0.873972	0.010162	0.873178
	C2017	C	0.904860	0.020034	0.857195
	C2018	C	0.926127	0.010438	0.872431
	C2019	C	0.882936	-0.038458	0.954271
	C2020	C	0.931575	-0.026773	0.924538
	N2021	N	0.909922	-0.044356	0.953926
	O2022	O	0.956354	-0.027369	0.917623
	O2023	O	0.862144	-0.048150	0.977619
	C2024	C	0.846743	0.017137	0.862992
	C2025	C	0.831157	-0.014588	0.916472
	N2026	N	0.821899	0.001876	0.890075
	O2027	O	0.814214	-0.030134	0.941954
	O2028	O	0.844538	0.032266	0.837417
	C2029	C	0.958195	0.027247	0.850847
	C2030	C	0.920770	0.039922	0.823221
	N2031	N	0.953577	0.045306	0.822212
	O2032	O	0.908876	0.049706	0.800622
	O2033	O	0.983750	0.027356	0.856233
	C2034	C	0.657917	0.250995	0.762901
	C2035	C	0.651964	0.222643	0.745618
	C2036	C	0.661873	0.201648	0.761532
	C2037	C	0.677972	0.209313	0.794792
	C2038	C	0.685829	0.238957	0.811186
	C2039	C	0.676508	0.260126	0.795160
	C2040	C	0.633728	0.220054	0.711001
	C2041	C	0.640090	0.265352	0.741675
	N2042	N	0.625433	0.245039	0.710976
	O2043	O	0.637249	0.288346	0.749419
	O2044	O	0.626697	0.200798	0.686950
	C2045	C	0.685151	0.182390	0.805282
	C2046	C	0.656316	0.168624	0.750477
	N2047	N	0.671714	0.158803	0.777479
	O2048	O	0.641625	0.152665	0.724602
	O2049	O	0.699123	0.179583	0.831537
	C2050	C	0.690973	0.290791	0.817719
	C2051	C	0.702870	0.253376	0.846433
	N2052	N	0.707582	0.285574	0.847458
	O2053	O	0.710942	0.240835	0.870090
	O2054	O	0.690746	0.315980	0.812392
	C2055	C	0.909609	0.263125	0.641829
	C2056	C	0.935431	0.268411	0.666102
	O2057	O	0.962787	0.298664	0.668371
	C2058	C	0.932189	0.242404	0.688874
	C2059	C	0.901943	0.211781	0.688574
	O2060	O	0.897201	0.187196	0.712179
	C2061	C	0.876376	0.205932	0.663978
	C2062	C	0.881535	0.231161	0.639128
	O2063	O	0.858485	0.224859	0.612968
	H2064	H	0.901547	0.172270	0.697335
	H2065	H	0.863751	0.213451	0.593941
	H2066	H	0.977749	0.300851	0.648028
	C2067	C	0.645667	0.071043	0.800485
	C2068	C	0.664872	0.065463	0.775657
	O2069	O	0.659969	0.034852	0.772723
	C2070	C	0.688183	0.091455	0.753094
	C2071	C	0.689762	0.122212	0.753511
	O2072	O	0.709767	0.146636	0.729753
	C2073	C	0.670771	0.128123	0.778073
	C2074	C	0.650863	0.103099	0.803324
	O2075	O	0.635258	0.109495	0.829832
	H2076	H	0.729323	0.162410	0.744686
	H2077	H	0.653232	0.121956	0.848071
	H2078	H	0.674383	0.032536	0.791264
	C2079	C	0.733656	0.310728	0.201707
	C2080	C	0.728368	0.330088	0.226182
	O2081	O	0.697657	0.325766	0.229731
	C2082	C	0.754849	0.353185	0.247714
	C2083	C	0.785534	0.353962	0.247215
	O2084	O	0.810314	0.373693	0.270202
	C2085	C	0.791183	0.334801	0.223082
	C2086	C	0.765702	0.314910	0.198880
	O2087	O	0.772043	0.299541	0.172314
	H2088	H	0.827149	0.391960	0.254150
	H2089	H	0.786072	0.317679	0.154473
	H2090	H	0.694961	0.338666	0.209477
	C2091	C	0.738343	0.415106	0.015095
	C2092	C	0.761269	0.444523	0.031204
	C2093	C	0.792347	0.465609	0.015095
	C2094	C	0.800188	0.457115	-0.017413
	C2095	C	0.777969	0.426419	-0.032371
	C2096	C	0.747601	0.404957	-0.015832
	C2097	C	0.746029	0.447652	0.065183
	C2098	C	0.705905	0.400948	0.035709
	N2099	N	0.712151	0.422217	0.065337
	O2100	O	0.679406	0.377510	0.028323
	O2101	O	0.759028	0.467271	0.088977
	C2102	C	0.834563	0.484244	-0.028520
	C2103	C	0.820619	0.499286	0.025104
	N2104	N	0.845574	0.508730	-0.001823
	O2105	O	0.822688	0.515772	0.050352
	O2106	O	0.850864	0.486239	-0.054454
	C2107	C	0.731532	0.372843	-0.036076
	C2108	C	0.779962	0.410891	-0.066340
	N2109	N	0.753099	0.377849	-0.065697
	O2110	O	0.800039	0.423193	-0.090503
	O2111	O	0.706496	0.347328	-0.028812
	C2112	C	0.916261	0.323673	0.237250
	C2113	C	0.886344	0.315235	0.254079
	C2114	C	0.865090	0.325219	0.238788
	C2115	C	0.873972	0.343495	0.206511
	C2116	C	0.904860	0.353367	0.190529
	C2117	C	0.926127	0.343771	0.205765
	C2118	C	0.882936	0.294876	0.287604
	C2119	C	0.931575	0.306561	0.257871
	N2120	N	0.909922	0.288978	0.287259
	O2121	O	0.956354	0.305964	0.250956
	O2122	O	0.862144	0.285183	0.310952
	C2123	C	0.846743	0.350471	0.196325
	C2124	C	0.831157	0.318745	0.249805
	N2125	N	0.821899	0.335209	0.223408
	O2126	O	0.814214	0.303200	0.275287
	O2127	O	0.844538	0.365599	0.170750
	C2128	C	0.958195	0.360580	0.184181
	C2129	C	0.920770	0.373255	0.156554
	N2130	N	0.953577	0.378639	0.155546
	O2131	O	0.908876	0.383040	0.133956
	O2132	O	0.983750	0.360689	0.189567
	C2133	C	0.657917	0.584328	0.096235
	C2134	C	0.651964	0.555976	0.078952
	C2135	C	0.661873	0.534982	0.094865
	C2136	C	0.677972	0.542646	0.128125
	C2137	C	0.685829	0.572291	0.144519
	C2138	C	0.676508	0.593459	0.128493
	C2139	C	0.633728	0.553387	0.044335
	C2140	C	0.640090	0.598685	0.075009
	N2141	N	0.625433	0.578373	0.044309
	O2142	O	0.637249	0.621680	0.082753
	O2143	O	0.626697	0.534131	0.020283
	C2144	C	0.685151	0.515723	0.138615
	C2145	C	0.656316	0.501957	0.083810
	N2146	N	0.671714	0.492137	0.110813
	O2147	O	0.641625	0.485999	0.057935
	O2148	O	0.699123	0.512916	0.164871
	C2149	C	0.690973	0.624124	0.151052
	C2150	C	0.702870	0.586709	0.179766
	N2151	N	0.707582	0.618907	0.180792
	O2152	O	0.710942	0.574168	0.203423
	O2153	O	0.690746	0.649314	0.145725
	C2154	C	0.909609	0.596458	-0.024838
	C2155	C	0.935431	0.601744	-0.000564
	O2156	O	0.962787	0.631997	0.001705
	C2157	C	0.932189	0.575738	0.022208
	C2158	C	0.901943	0.545114	0.021907
	O2159	O	0.897201	0.520530	0.045512
	C2160	C	0.876376	0.539266	-0.002689
	C2161	C	0.881535	0.564495	-0.027539
	O2162	O	0.858485	0.558192	-0.053699
	H2163	H	0.901547	0.505603	0.030668
	H2164	H	0.863751	0.546784	-0.072726
	H2165	H	0.977749	0.634185	-0.018638
	C2166	C	0.645667	0.404377	0.133818
	C2167	C	0.664872	0.398796	0.108991
	O2168	O	0.659969	0.368186	0.106056
	C2169	C	0.688183	0.424789	0.086428
	C2170	C	0.689762	0.455546	0.086844
	O2171	O	0.709767	0.479970	0.063086
	C2172	C	0.670771	0.461456	0.111406
	C2173	C	0.650863	0.436433	0.136657
	O2174	O	0.635258	0.442828	0.163165
	H2175	H	0.729323	0.495743	0.078019
	H2176	H	0.653232	0.455289	0.181404
	H2177	H	0.674383	0.365870	0.124598
	C2178	C	0.733656	0.310728	0.535040
	C2179	C	0.728368	0.330088	0.559515
	O2180	O	0.697657	0.325766	0.563064
	C2181	C	0.754849	0.353185	0.581047
	C2182	C	0.785534	0.353962	0.580549
	O2183	O	0.810314	0.373693	0.603535
	C2184	C	0.791183	0.334801	0.556415
	C2185	C	0.765702	0.314910	0.532214
	O2186	O	0.772043	0.299541	0.505648
	H2187	H	0.827149	0.391960	0.587483
	H2188	H	0.786072	0.317679	0.487806
	H2189	H	0.694961	0.338666	0.542810
	C2190	C	0.738343	0.415106	0.348428
	C2191	C	0.761269	0.444523	0.364538
	C2192	C	0.792347	0.465609	0.348428
	C2193	C	0.800188	0.457115	0.315920
	C2194	C	0.777969	0.426419	0.300963
	C2195	C	0.747601	0.404957	0.317501
	C2196	C	0.746029	0.447652	0.398516
	C2197	C	0.705905	0.400948	0.369042
	N2198	N	0.712151	0.422217	0.398671
	O2199	O	0.679406	0.377510	0.361657
	O2200	O	0.759028	0.467271	0.422310
	C2201	C	0.834563	0.484244	0.304813
	C2202	C	0.820619	0.499286	0.358437
	N2203	N	0.845574	0.508730	0.331511
	O2204	O	0.822688	0.515772	0.383685
	O2205	O	0.850864	0.486239	0.278879
	C2206	C	0.731532	0.372843	0.297257
	C2207	C	0.779962	0.410891	0.266993
	N2208	N	0.753099	0.377849	0.267637
	O2209	O	0.800039	0.423193	0.242830
	O2210	O	0.706496	0.347328	0.304521
	C2211	C	0.916261	0.323673	0.570583
	C2212	C	0.886344	0.315235	0.587413
	C2213	C	0.865090	0.325219	0.572121
	C2214	C	0.873972	0.343495	0.539844
	C2215	C	0.904860	0.353367	0.523862
	C2216	C	0.926127	0.343771	0.539098
	C2217	C	0.882936	0.294876	0.620938
	C2218	C	0.931575	0.306561	0.591205
	N2219	N	0.909922	0.288978	0.620593
	O2220	O	0.956354	0.305964	0.584290
	O2221	O	0.862144	0.285183	0.644285
	C2222	C	0.846743	0.350471	0.529658
	C2223	C	0.831157	0.318745	0.583138
	N2224	N	0.821899	0.335209	0.556742
	O2225	O	0.814214	0.303200	0.608620
	O2226	O	0.844538	0.365599	0.504083
	C2227	C	0.958195	0.360580	0.517514
	C2228	C	0.920770	0.373255	0.489888
	N2229	N	0.953577	0.378639	0.488879
	O2230	O	0.908876	0.383040	0.467289
	O2231	O	0.983750	0.360689	0.522900
	C2232	C	0.657917	0.584328	0.429568
	C2233	C	0.651964	0.555976	0.412285
	C2234	C	0.661873	0.534982	0.428198
	C2235	C	0.677972	0.542646	0.461459
	C2236	C	0.685829	0.572291	0.477852
	C2237	C	0.676508	0.593459	0.461827
	C2238	C	0.633728	0.553387	0.377668
	C2239	C	0.640090	0.598685	0.408342
	N2240	N	0.625433	0.578373	0.377643
	O2241	O	0.637249	0.621680	0.416086
	O2242	O	0.626697	0.534131	0.353617
	C2243	C	0.685151	0.515723	0.471948
	C2244	C	0.656316	0.501957	0.417144
	N2245	N	0.671714	0.492137	0.444146
	O2246	O	0.641625	0.485999	0.391269
	O2247	O	0.699123	0.512916	0.498204
	C2248	C	0.690973	0.624124	0.484386
	C2249	C	0.702870	0.586709	0.513100
	N2250	N	0.707582	0.618907	0.514125
	O2251	O	0.710942	0.574168	0.536756
	O2252	O	0.690746	0.649314	0.479059
	C2253	C	0.909609	0.596458	0.308495
	C2254	C	0.935431	0.601744	0.332769
	O2255	O	0.962787	0.631997	0.335038
	C2256	C	0.932189	0.575738	0.355541
	C2257	C	0.901943	0.545114	0.355241
	O2258	O	0.897201	0.520530	0.378845
	C2259	C	0.876376	0.539266	0.330645
	C2260	C	0.881535	0.564495	0.305794
	O2261	O	0.858485	0.558192	0.279634
	H2262	H	0.901547	0.505603	0.364002
	H2263	H	0.863751	0.546784	0.260607
	H2264	H	0.977749	0.634185	0.314695
	C2265	C	0.645667	0.404377	0.467151
	C2266	C	0.664872	0.398796	0.442324
	O2267	O	0.659969	0.368186	0.439390
	C2268	C	0.688183	0.424789	0.419761
	C2269	C	0.689762	0.455546	0.420177
	O2270	O	0.709767	0.479970	0.396419
	C2271	C	0.670771	0.461456	0.444740
	C2272	C	0.650863	0.436433	0.469991
	O2273	O	0.635258	0.442828	0.496499
	H2274	H	0.729323	0.495743	0.411352
	H2275	H	0.653232	0.455289	0.514738
	H2276	H	0.674383	0.365870	0.457931
	C2277	C	0.733656	0.310728	0.868374
	C2278	C	0.728368	0.330088	0.892848
	O2279	O	0.697657	0.325766	0.896397
	C2280	C	0.754849	0.353185	0.914381
	C2281	C	0.785534	0.353962	0.913882
	O2282	O	0.810314	0.373693	0.936869
	C2283	C	0.791183	0.334801	0.889748
	C2284	C	0.765702	0.314910	0.865547
	O2285	O	0.772043	0.299541	0.838981
	H2286	H	0.827149	0.391960	0.920817
	H2287	H	0.786072	0.317679	0.821140
	H2288	H	0.694961	0.338666	0.876144
	C2289	C	0.738343	0.415106	0.681762
	C2290	C	0.761269	0.444523	0.697871
	C2291	C	0.792347	0.465609	0.681761
	C2292	C	0.800188	0.457115	0.649253
	C2293	C	0.777969	0.426419	0.634296
	C2294	C	0.747601	0.404957	0.650835
	C2295	C	0.746029	0.447652	0.731849
	C2296	C	0.705905	0.400948	0.702375
	N2297	N	0.712151	0.422217	0.732004
	O2298	O	0.679406	0.377510	0.694990
	O2299	O	0.759028	0.467271	0.755644
	C2300	C	0.834563	0.484244	0.638146
	C2301	C	0.820619	0.499286	0.691770
	N2302	N	0.845574	0.508730	0.664844
	O2303	O	0.822688	0.515772	0.717019
	O2304	O	0.850864	0.486239	0.612212
	C2305	C	0.731532	0.372843	0.630590
	C2306	C	0.779962	0.410891	0.600327
	N2307	N	0.753099	0.377849	0.600970
	O2308	O	0.800039	0.423193	0.576164
	O2309	O	0.706496	0.347328	0.637854
	C2310	C	0.916261	0.323673	0.903917
	C2311	C	0.886344	0.315235	0.920746
	C2312	C	0.865090	0.325219	0.905454
	C2313	C	0.873972	0.343495	0.873178
	C2314	C	0.904860	0.353367	0.857195
	C2315	C	0.926127	0.343771	0.872431
	C2316	C	0.882936	0.294876	0.954271
	C2317	C	0.931575	0.306561	0.924538
	N2318	N	0.909922	0.288978	0.953926
	O2319	O	0.956354	0.305964	0.917623
	O2320	O	0.862144	0.285183	0.977619
	C2321	C	0.846743	0.350471	0.862992
	C2322	C	0.831157	0.318745	0.916472
	N2323	N	0.821899	0.335209	0.890075
	O2324	O	0.814214	0.303200	0.941954
	O2325	O	0.844538	0.365599	0.837417
	C2326	C	0.958195	0.360580	0.850847
	C2327	C	0.920770	0.373255	0.823221
	N2328	N	0.953577	0.378639	0.822212
	O2329	O	0.908876	0.383040	0.800622
	O2330	O	0.983750	0.360689	0.856233
	C2331	C	0.657917	0.584328	0.762901
	C2332	C	0.651964	0.555976	0.745618
	C2333	C	0.661873	0.534982	0.761532
	C2334	C	0.677972	0.542646	0.794792
	C2335	C	0.685829	0.572291	0.811186
	C2336	C	0.676508	0.593459	0.795160
	C2337	C	0.633728	0.553387	0.711001
	C2338	C	0.640090	0.598685	0.741675
	N2339	N	0.625433	0.578373	0.710976
	O2340	O	0.637249	0.621680	0.749419
	O2341	O	0.626697	0.534131	0.686950
	C2342	C	0.685151	0.515723	0.805282
	C2343	C	0.656316	0.501957	0.750477
	N2344	N	0.671714	0.492137	0.777479
	O2345	O	0.641625	0.485999	0.724602
	O2346	O	0.699123	0.512916	0.831537
	C2347	C	0.690973	0.624124	0.817719
	C2348	C	0.702870	0.586709	0.846433
	N2349	N	0.707582	0.618907	0.847458
	O2350	O	0.710942	0.574168	0.870090
	O2351	O	0.690746	0.649314	0.812392
	C2352	C	0.909609	0.596458	0.641829
	C2353	C	0.935431	0.601744	0.666102
	O2354	O	0.962787	0.631997	0.668371
	C2355	C	0.932189	0.575738	0.688874
	C2356	C	0.901943	0.545114	0.688574
	O2357	O	0.897201	0.520530	0.712179
	C2358	C	0.876376	0.539266	0.663978
	C2359	C	0.881535	0.564495	0.639128
	O2360	O	0.858485	0.558192	0.612968
	H2361	H	0.901547	0.505603	0.697335
	H2362	H	0.863751	0.546784	0.593941
	H2363	H	0.977749	0.634185	0.648028
	C2364	C	0.645667	0.404377	0.800485
	C2365	C	0.664872	0.398796	0.775657
	O2366	O	0.659969	0.368186	0.772723
	C2367	C	0.688183	0.424789	0.753094
	C2368	C	0.689762	0.455546	0.753511
	O2369	O	0.709767	0.479970	0.729753
	C2370	C	0.670771	0.461456	0.778073
	C2371	C	0.650863	0.436433	0.803324
	O2372	O	0.635258	0.442828	0.829832
	H2373	H	0.729323	0.495743	0.744686
	H2374	H	0.653232	0.455289	0.848071
	H2375	H	0.674383	0.365870	0.791264
	C2376	C	0.733656	0.644061	0.201707
	C2377	C	0.728368	0.663422	0.226182
	O2378	O	0.697657	0.659099	0.229731
	C2379	C	0.754849	0.686518	0.247714
	C2380	C	0.785534	0.687295	0.247215
	O2381	O	0.810314	0.707026	0.270202
	C2382	C	0.791183	0.668135	0.223082
	C2383	C	0.765702	0.648243	0.198880
	O2384	O	0.772043	0.632874	0.172314
	H2385	H	0.827149	0.725293	0.254150
	H2386	H	0.786072	0.651013	0.154473
	H2387	H	0.694961	0.671999	0.209477
	C2388	C	0.738343	0.748439	0.015095
	C2389	C	0.761269	0.777856	0.031204
	C2390	C	0.792347	0.798943	0.015095
	C2391	C	0.800188	0.790449	-0.017413
	C2392	C	0.777969	0.759752	-0.032371
	C2393	C	0.747601	0.738290	-0.015832
	C2394	C	0.746029	0.780985	0.065183
	C2395	C	0.705905	0.734282	0.035709
	N2396	N	0.712151	0.755550	0.065337
	O2397	O	0.679406	0.710843	0.028323
	O2398	O	0.759028	0.800604	0.088977
	C2399	C	0.834563	0.817577	-0.028520
	C2400	C	0.820619	0.832619	0.025104
	N2401	N	0.845574	0.842063	-0.001823
	O2402	O	0.822688	0.849105	0.050352
	O2403	O	0.850864	0.819572	-0.054454
	C2404	C	0.731532	0.706176	-0.036076
	C2405	C	0.779962	0.744225	-0.066340
	N2406	N	0.753099	0.711183	-0.065697
	O2407	O	0.800039	0.756527	-0.090503
	O2408	O	0.706496	0.680661	-0.028812
	C2409	C	0.916261	0.657006	0.237250
	C2410	C	0.886344	0.648568	0.254079
	C2411	C	0.865090	0.658552	0.238788
	C2412	C	0.873972	0.676828	0.206511
	C2413	C	0.904860	0.686701	0.190529
	C2414	C	0.926127	0.677104	0.205765
	C2415	C	0.882936	0.628209	0.287604
	C2416	C	0.931575	0.639894	0.257871
	N2417	N	0.909922	0.622311	0.287259
	O2418	O	0.956354	0.639297	0.250956
	O2419	O	0.862144	0.618517	0.310952
	C2420	C	0.846743	0.683804	0.196325
	C2421	C	0.831157	0.652079	0.249805
	N2422	N	0.821899	0.668543	0.223408
	O2423	O	0.814214	0.636533	0.275287
	O2424	O	0.844538	0.698933	0.170750
	C2425	C	0.958195	0.693913	0.184181
	C2426	C	0.920770	0.706588	0.156554
	N2427	N	0.953577	0.711973	0.155546
	O2428	O	0.908876	0.716373	0.133956
	O2429	O	0.983750	0.694022	0.189567
	C2430	C	0.657917	0.917661	0.096235
	C2431	C	0.651964	0.889309	0.078952
	C2432	C	0.661873	0.868315	0.094865
	C2433	C	0.677972	0.875979	0.128125
	C2434	C	0.685829	0.905624	0.144519
	C2435	C	0.676508	0.926792	0.128493
	C2436	C	0.633728	0.886720	0.044335
	C2437	C	0.640090	0.932018	0.075009
	N2438	N	0.625433	0.911706	0.044309
	O2439	O	0.637249	0.955013	0.082753
	O2440	O	0.626697	0.867464	0.020283
	C2441	C	0.685151	0.849057	0.138615
	C2442	C	0.656316	0.835291	0.083810
	N2443	N	0.671714	0.825470	0.110813
	O2444	O	0.641625	0.819332	0.057935
	O2445	O	0.699123	0.846249	0.164871
	C2446	C	0.690973	0.957457	0.151052
	C2447	C	0.702870	0.920042	0.179766
	N2448	N	0.707582	0.952241	0.180792
	O2449	O	0.710942	0.907501	0.203423
	O2450	O	0.690746	0.982647	0.145725
	C2451	C	0.909609	0.929792	-0.024838
	C2452	C	0.935431	0.935078	-0.000564
	O2453	O	0.962787	0.965331	0.001705
	C2454	C	0.932189	0.909071	0.022208
	C2455	C	0.901943	0.878448	0.021907
	O2456	O	0.897201	0.853863	0.045512
	C2457	C	0.876376	0.872599	-0.002689
	C2458	C	0.881535	0.897828	-0.027539
	O2459	O	0.858485	0.891525	-0.053699
	H2460	H	0.901547	0.838937	0.030668
	H2461	H	0.863751	0.880117	-0.072726
	H2462	H	0.977749	0.967518	-0.018638
	C2463	C	0.645667	0.737710	0.133818
	C2464	C	0.664872	0.732129	0.108991
	O2465	O	0.659969	0.701519	0.106056
	C2466	C	0.688183	0.758122	0.086428
	C2467	C	0.689762	0.788879	0.086844
	O2468	O	0.709767	0.813303	0.063086
	C2469	C	0.670771	0.794789	0.111406
	C2470	C	0.650863	0.769766	0.136657
	O2471	O	0.635258	0.776162	0.163165
	H2472	H	0.729323	0.829077	0.078019
	H2473	H	0.653232	0.788623	0.181404
	H2474	H	0.674383	0.699203	0.124598
	C2475	C	0.733656	0.644061	0.535040
	C2476	C	0.728368	0.663422	0.559515
	O2477	O	0.697657	0.659099	0.563064
	C2478	C	0.754849	0.686518	0.581047
	C2479	C	0.785534	0.687295	0.580549
	O2480	O	0.810314	0.707026	0.603535
	C2481	C	0.791183	0.668135	0.556415
	C2482	C	0.765702	0.648243	0.532214
	O2483	O	0.772043	0.632874	0.505648
	H2484	H	0.827149	0.725293	0.587483
	H2485	H	0.786072	0.651013	0.487806
	H2486	H	0.694961	0.671999	0.542810
	C2487	C	0.738343	0.748439	0.348428
	C2488	C	0.761269	0.777856	0.364538
	C2489	C	0.792347	0.798943	0.348428
	C2490	C	0.800188	0.790449	0.315920
	C2491	C	0.777969	0.759752	0.300963
	C2492	C	0.747601	0.738290	0.317501
	C2493	C	0.746029	0.780985	0.398516
	C2494	C	0.705905	0.734282	0.369042
	N2495	N	0.712151	0.755550	0.398671
	O2496	O	0.679406	0.710843	0.361657
	O2497	O	0.759028	0.800604	0.422310
	C2498	C	0.834563	0.817577	0.304813
	C2499	C	0.820619	0.832619	0.358437
	N2500	N	0.845574	0.842063	0.331511
	O2501	O	0.822688	0.849105	0.383685
	O2502	O	0.850864	0.819572	0.278879
	C2503	C	0.731532	0.706176	0.297257
	C2504	C	0.779962	0.744225	0.266993
	N2505	N	0.753099	0.711183	0.267637
	O2506	O	0.800039	0.756527	0.242830
	O2507	O	0.706496	0.680661	0.304521
	C2508	C	0.916261	0.657006	0.570583
	C2509	C	0.886344	0.648568	0.587413
	C2510	C	0.865090	0.658552	0.572121
	C2511	C	0.873972	0.676828	0.539844
	C2512	C	0.904860	0.686701	0.523862
	C2513	C	0.926127	0.677104	0.539098
	C2514	C	0.882936	0.628209	0.620938
	C2515	C	0.931575	0.639894	0.591205
	N2516	N	0.909922	0.622311	0.620593
	O2517	O	0.956354	0.639297	0.584290
	O2518	O	0.862144	0.618517	0.644285
	C2519	C	0.846743	0.683804	0.529658
	C2520	C	0.831157	0.652079	0.583138
	N2521	N	0.821899	0.668543	0.556742
	O2522	O	0.814214	0.636533	0.608620
	O2523	O	0.844538	0.698933	0.504083
	C2524	C	0.958195	0.693913	0.517514
	C2525	C	0.920770	0.706588	0.489888
	N2526	N	0.953577	0.711973	0.488879
	O2527	O	0.908876	0.716373	0.467289
	O2528	O	0.983750	0.694022	0.522900
	C2529	C	0.657917	0.917661	0.429568
	C2530	C	0.651964	0.889309	0.412285
	C2531	C	0.661873	0.868315	0.428198
	C2532	C	0.677972	0.875979	0.461459
	C2533	C	0.685829	0.905624	0.477852
	C2534	C	0.676508	0.926792	0.461827
	C2535	C	0.633728	0.886720	0.377668
	C2536	C	0.640090	0.932018	0.408342
	N2537	N	0.625433	0.911706	0.377643
	O2538	O	0.637249	0.955013	0.416086
	O2539	O	0.626697	0.867464	0.353617
	C2540	C	0.685151	0.849057	0.471948
	C2541	C	0.656316	0.835291	0.417144
	N2542	N	0.671714	0.825470	0.444146
	O2543	O	0.641625	0.819332	0.391269
	O2544	O	0.699123	0.846249	0.498204
	C2545	C	0.690973	0.957457	0.484386
	C2546	C	0.702870	0.920042	0.513100
	N2547	N	0.707582	0.952241	0.514125
	O2548	O	0.710942	0.907501	0.536756
	O2549	O	0.690746	0.982647	0.479059
	C2550	C	0.909609	0.929792	0.308495
	C2551	C	0.935431	0.935078	0.332769
	O2552	O	0.962787	0.965331	0.335038
	C2553	C	0.932189	0.909071	0.355541
	C2554	C	0.901943	0.878448	0.355241
	O2555	O	0.897201	0.853863	0.378845
	C2556	C	0.876376	0.872599	0.330645
	C2557	C	0.881535	0.897828	0.305794
	O2558	O	0.858485	0.891525	0.279634
	H2559	H	0.901547	0.838937	0.364002
	H2560	H	0.863751	0.880117	0.260607
	H2561	H	0.977749	0.967518	0.314695
	C2562	C	0.645667	0.737710	0.467151
	C2563	C	0.664872	0.732129	0.442324
	O2564	O	0.659969	0.701519	0.439390
	C2565	C	0.688183	0.758122	0.419761
	C2566	C	0.689762	0.788879	0.420177
	O2567	O	0.709767	0.813303	0.396419
	C2568	C	0.670771	0.794789	0.444740
	C2569	C	0.650863	0.769766	0.469991
	O2570	O	0.635258	0.776162	0.496499
	H2571	H	0.729323	0.829077	0.411352
	H2572	H	0.653232	0.788623	0.514738
	H2573	H	0.674383	0.699203	0.457931
	C2574	C	0.733656	0.644061	0.868374
	C2575	C	0.728368	0.663422	0.892848
	O2576	O	0.697657	0.659099	0.896397
	C2577	C	0.754849	0.686518	0.914381
	C2578	C	0.785534	0.687295	0.913882
	O2579	O	0.810314	0.707026	0.936869
	C2580	C	0.791183	0.668135	0.889748
	C2581	C	0.765702	0.648243	0.865547
	O2582	O	0.772043	0.632874	0.838981
	H2583	H	0.827149	0.725293	0.920817
	H2584	H	0.786072	0.651013	0.821140
	H2585	H	0.694961	0.671999	0.876144
	C2586	C	0.738343	0.748439	0.681762
	C2587	C	0.761269	0.777856	0.697871
	C2588	C	0.792347	0.798943	0.681761
	C2589	C	0.800188	0.790449	0.649253
	C2590	C	0.777969	0.759752	0.634296
	C2591	C	0.747601	0.738290	0.650835
	C2592	C	0.746029	0.780985	0.731849
	C2593	C	0.705905	0.734282	0.702375
	N2594	N	0.712151	0.755550	0.732004
	O2595	O	0.679406	0.710843	0.694990
	O2596	O	0.759028	0.800604	0.755644
	C2597	C	0.834563	0.817577	0.638146
	C2598	C	0.820619	0.832619	0.691770
	N2599	N	0.845574	0.842063	0.664844
	O2600	O	0.822688	0.849105	0.717019
	O2601	O	0.850864	0.819572	0.612212
	C2602	C	0.731532	0.706176	0.630590
	C2603	C	0.779962	0.744225	0.600327
	N2604	N	0.753099	0.711183	0.600970
	O2605	O	0.800039	0.756527	0.576164
	O2606	O	0.706496	0.680661	0.637854
	C2607	C	0.916261	0.657006	0.903917
	C2608	C	0.886344	0.648568	0.920746
	C2609	C	0.865090	0.658552	0.905454
	C2610	C	0.873972	0.676828	0.873178
	C2611	C	0.904860	0.686701	0.857195
	C2612	C	0.926127	0.677104	0.872431
	C2613	C	0.882936	0.628209	0.954271
	C2614	C	0.931575	0.639894	0.924538
	N2615	N	0.909922	0.622311	0.953926
	O2616	O	0.956354	0.639297	0.917623
	O2617	O	0.862144	0.618517	0.977619
	C2618	C	0.846743	0.683804	0.862992
	C2619	C	0.831157	0.652079	0.916472
	N2620	N	0.821899	0.668543	0.890075
	O2621	O	0.814214	0.636533	0.941954
	O2622	O	0.844538	0.698933	0.837417
	C2623	C	0.958195	0.693913	0.850847
	C2624	C	0.920770	0.706588	0.823221
	N2625	N	0.953577	0.711973	0.822212
	O2626	O	0.908876	0.716373	0.800622
	O2627	O	0.983750	0.694022	0.856233
	C2628	C	0.657917	0.917661	0.762901
	C2629	C	0.651964	0.889309	0.745618
	C2630	C	0.661873	0.868315	0.761532
	C2631	C	0.677972	0.875979	0.794792
	C2632	C	0.685829	0.905624	0.811186
	C2633	C	0.676508	0.926792	0.795160
	C2634	C	0.633728	0.886720	0.711001
	C2635	C	0.640090	0.932018	0.741675
	N2636	N	0.625433	0.911706	0.710976
	O2637	O	0.637249	0.955013	0.749419
	O2638	O	0.626697	0.867464	0.686950
	C2639	C	0.685151	0.849057	0.805282
	C2640	C	0.656316	0.835291	0.750477
	N2641	N	0.671714	0.825470	0.777479
	O2642	O	0.641625	0.819332	0.724602
	O2643	O	0.699123	0.846249	0.831537
	C2644	C	0.690973	0.957457	0.817719
	C2645	C	0.702870	0.920042	0.846433
	N2646	N	0.707582	0.952241	0.847458
	O2647	O	0.710942	0.907501	0.870090
	O2648	O	0.690746	0.982647	0.812392
	C2649	C	0.909609	0.929792	0.641829
	C2650	C	0.935431	0.935078	0.666102
	O2651	O	0.962787	0.965331	0.668371
	C2652	C	0.932189	0.909071	0.688874
	C2653	C	0.901943	0.878448	0.688574
	O2654	O	0.897201	0.853863	0.712179
	C2655	C	0.876376	0.872599	0.663978
	C2656	C	0.881535	0.897828	0.639128
	O2657	O	0.858485	0.891525	0.612968
	H2658	H	0.901547	0.838937	0.697335
	H2659	H	0.863751	0.880117	0.593941
	H2660	H	0.977749	0.967518	0.648028
	C2661	C	0.645667	0.737710	0.800485
	C2662	C	0.664872	0.732129	0.775657
	O2663	O	0.659969	0.701519	0.772723
	C2664	C	0.688183	0.758122	0.753094
	C2665	C	0.689762	0.788879	0.753511
	O2666	O	0.709767	0.813303	0.729753
	C2667	C	0.670771	0.794789	0.778073
	C2668	C	0.650863	0.769766	0.803324
	O2669	O	0.635258	0.776162	0.829832
	H2670	H	0.729323	0.829077	0.744686
	H2671	H	0.653232	0.788623	0.848071
	H2672	H	0.674383	0.699203	0.791264
	N2673	N	0.678888	0.855878	0.315145
	N2674	N	0.686353	0.854946	0.287323
	N2675	N	0.716254	0.266896	0.646863
	N2676	N	0.705040	0.260232	0.619748
	N2677	N	0.580267	0.851926	0.830261
	N2678	N	0.590171	0.846384	0.806351
	N2679	N	0.152648	0.048633	0.373261
	N2680	N	0.150597	0.037235	0.400187
	N2681	N	0.755961	0.325365	0.339380
	N2682	N	0.752978	0.306686	0.320063
	N2683	N	0.793978	0.590327	0.025839
	N2684	N	0.771398	0.565843	0.028692
	N2685	N	0.495337	0.052909	0.774426
	N2686	N	0.497613	0.060115	0.745572
	C2687	C	0.698189	0.508406	0.610917
	O2688	O	0.698702	0.528060	0.629800
	O2689	O	0.697688	0.488778	0.592007
	C2690	C	0.368476	0.940544	0.977114
	O2691	O	0.376780	0.954406	1.004393
	O2692	O	0.360163	0.926707	0.949863
	C2693	C	0.544904	0.106587	0.652650
	O2694	O	0.522259	0.102949	0.669387
	O2695	O	0.567537	0.110201	0.635914
	C2696	C	0.266484	0.455087	0.650993
	O2697	O	0.275208	0.437846	0.639853
	O2698	O	0.257759	0.472327	0.662133
	C2699	C	0.661631	0.495821	0.303706
	O2700	O	0.637178	0.485849	0.286969
	O2701	O	0.686118	0.505818	0.320470
	C2702	C	0.708760	0.430891	0.892887
	O2703	O	0.693154	0.443370	0.886584
	O2704	O	0.724365	0.418411	0.899191
	C2705	C	0.798386	0.566444	0.126205
	O2706	O	0.820174	0.586634	0.143077
	O2707	O	0.776606	0.546229	0.109305
	C2708	C	0.418662	0.009374	0.374946
	O2709	O	0.398549	-0.015953	0.387390
	O2710	O	0.438775	0.034700	0.362529
	C2711	C	0.003806	0.453701	0.982684
	O2712	O	-0.022859	0.449159	0.977386
	O2713	O	0.030471	0.458245	0.987955
	C2714	C	0.444963	0.537774	0.883351
	O2715	O	0.434135	0.514273	0.902017
	O2716	O	0.455791	0.561275	0.864658
	C2717	C	0.436851	0.575307	0.399290
	O2718	O	0.431905	0.597157	0.399372
	O2719	O	0.441775	0.553457	0.399209
	C2720	C	0.267283	0.001745	0.360953
	O2721	O	0.257792	-0.014076	0.387580
	O2722	O	0.276765	0.017591	0.334327
	C2723	C	0.372823	0.457691	0.247383
	O2724	O	0.398533	0.461990	0.257273
	O2725	O	0.347149	0.453416	0.237520
	C2726	C	0.067472	0.004922	0.392715
	O2727	O	0.070785	0.029930	0.401627
	O2728	O	0.064146	-0.020111	0.383803
	C2729	C	0.601157	0.239726	0.530983
	O2730	O	0.587285	0.236540	0.558126
	O2731	O	0.615016	0.242887	0.503868
	C2732	C	0.418532	0.333664	0.713647
	O2733	O	0.413772	0.343901	0.686640
	O2734	O	0.423302	0.323403	0.740654
	C2735	C	0.787038	0.572671	0.648113
	O2736	O	0.780724	0.563136	0.618634
	O2737	O	0.793318	0.582181	0.677592
	C2738	C	0.270585	0.082476	0.619585
	O2739	O	0.274336	0.060182	0.625426
	O2740	O	0.266834	0.104770	0.613770
	C2741	C	0.348778	0.099571	0.260696
	O2742	O	0.369260	0.095130	0.273167
	O2743	O	0.328283	0.103987	0.248225
	C2744	C	0.465335	0.725947	0.408637
	O2745	O	0.468501	0.714206	0.435399
	O2746	O	0.462156	0.737663	0.381847
	C2747	C	0.372095	0.190594	0.669822
	O2748	O	0.386535	0.207843	0.693704
	O2749	O	0.357656	0.173346	0.645939
	C2750	C	0.786705	0.883974	0.475855
	O2751	O	0.811360	0.887021	0.487647
	O2752	O	0.762028	0.880927	0.464091
	C2753	C	0.425625	0.114304	0.525196
	O2754	O	0.450634	0.139422	0.524000
	O2755	O	0.400594	0.089185	0.526419
	C2756	C	0.236870	0.927703	0.792060
	O2757	O	0.236097	0.942618	0.816268
	O2758	O	0.237664	0.912787	0.767851
	C2759	C	0.119248	0.218335	0.147234
	O2760	O	0.102376	0.199657	0.125444
	O2761	O	0.136133	0.237037	0.169025
	C2762	C	0.179338	0.017676	0.670284
	O2763	O	0.203820	0.026201	0.654226
	O2764	O	0.154855	0.009152	0.686341
	C2765	C	0.258308	0.760187	0.561875
	O2766	O	0.286934	0.773423	0.566793
	O2767	O	0.229669	0.746925	0.556985
	C2768	C	0.571823	0.810739	0.928480
	O2769	O	0.586028	0.838663	0.935218
	O2770	O	0.557618	0.782815	0.921769
	C2771	C	0.952052	0.402919	0.605673
	O2772	O	0.977859	0.412331	0.592143
	O2773	O	0.926246	0.393507	0.619204
	C2774	C	0.211534	0.420997	0.764944
	O2775	O	0.191930	0.398572	0.748479
	O2776	O	0.231148	0.443399	0.781409
	C2777	C	0.794796	0.231153	0.678245
	O2778	O	0.784986	0.213218	0.654063
	O2779	O	0.804640	0.249114	0.702399
	C2780	C	0.056626	0.599918	0.318731
	O2781	O	0.065235	0.610744	0.289551
	O2782	O	0.048018	0.589093	0.347885
	C2783	C	0.180274	0.986515	0.376169
	O2784	O	0.196024	1.008582	0.356253
	O2785	O	0.164516	0.964473	0.396084
	C2786	C	0.633157	0.061503	0.658383
	O2787	O	0.620295	0.040023	0.638087
	O2788	O	0.646041	0.082983	0.678706
	C2789	C	0.896361	0.262667	0.132427
	O2790	O	0.880753	0.236955	0.119276
	O2791	O	0.911982	0.288404	0.145550
	C2792	C	0.123456	0.584897	0.787658
	O2793	O	0.137052	0.602341	0.811676
	O2794	O	0.109839	0.567453	0.763640
	C2795	C	0.710441	0.435597	0.241188
	O2796	O	0.738591	0.447281	0.248144
	O2797	O	0.682270	0.423912	0.234233
	C2798	C	0.449318	0.253948	0.128052
	O2799	O	0.470928	0.267998	0.148620
	O2800	O	0.427742	0.239922	0.107484
	C2801	C	0.230608	0.311508	0.761765
	O2802	O	0.228459	0.314554	0.730628
	O2803	O	0.232771	0.308486	0.792902
	C2804	C	0.866292	0.565109	0.777660
	O2805	O	0.846321	0.570758	0.788066
	O2806	O	0.886264	0.559459	0.767281
	C2807	C	0.518865	0.124862	0.111560
	O2808	O	0.508732	0.120055	0.081999
	O2809	O	0.528964	0.129643	0.141148
	C2810	C	0.619607	0.374480	0.676315
	O2811	O	0.621578	0.386425	0.704138
	O2812	O	0.617624	0.362509	0.648521
	C2813	C	0.261714	0.440072	0.006303
	O2814	O	0.244030	0.450382	0.010325
	O2815	O	0.279397	0.429761	0.002282
	C2816	C	0.035027	0.842404	0.333620
	O2817	O	0.041902	0.862243	0.355465
	O2818	O	0.028173	0.822565	0.311748
	C2819	C	0.477693	0.388883	0.357693
	O2820	O	0.464811	0.366006	0.377283
	O2821	O	0.490541	0.411735	0.338103
	C2822	C	0.090728	0.096358	0.823686
	O2823	O	0.119328	0.109927	0.818578
	O2824	O	0.062115	0.082766	0.828766
	C2825	C	0.054924	0.414576	0.183207
	O2826	O	0.044315	0.432217	0.182202
	O2827	O	0.065533	0.396935	0.184213
	C2828	C	0.551517	0.437780	0.774318
	O2829	O	0.528514	0.419574	0.757228
	O2830	O	0.574499	0.455986	0.791408
	C2831	C	0.015689	0.429872	0.254692
	O2832	O	0.033230	0.424286	0.272243
	O2833	O	-0.001887	0.435432	0.237167
	C2834	C	0.913902	0.308394	0.421461
	O2835	O	0.912474	0.318174	0.392606
	O2836	O	0.915329	0.298615	0.450315
	C2837	C	0.558246	0.795342	0.212768
	O2838	O	0.534796	0.769220	0.217007
	O2839	O	0.581684	0.821438	0.208557
	C2840	C	0.463038	0.535908	0.789560
	O2841	O	0.445044	0.541836	0.773394
	O2842	O	0.481011	0.529980	0.805726
	C2843	C	0.435538	0.696471	0.760760
	O2844	O	0.436864	0.681042	0.785186
	O2845	O	0.434212	0.711900	0.736334
	C2846	C	0.947453	0.714945	0.342478
	O2847	O	0.954735	0.725031	0.371658
	O2848	O	0.940192	0.704860	0.313297
	C2849	C	0.163328	0.048274	0.094660
	O2850	O	0.183455	0.075962	0.090069
	O2851	O	0.143223	0.020585	0.099279
	C2852	C	0.084038	0.321166	0.352123
	O2853	O	0.074159	0.295731	0.338755
	O2854	O	0.093931	0.346626	0.365518
	C2855	C	0.753835	0.018144	0.404289
	O2856	O	0.755624	0.043535	0.399535
	O2857	O	0.752024	-0.007246	0.409044
	C2858	C	0.462795	0.579918	0.495553
	O2859	O	0.438465	0.560113	0.481561
	O2860	O	0.487126	0.599722	0.509546
	C2861	C	0.456902	0.897929	0.578585
	O2862	O	0.472629	0.915571	0.554838
	O2863	O	0.441162	0.880262	0.602332
	C2864	C	0.267885	0.135537	0.284171
	O2865	O	0.252313	0.133976	0.309303
	O2866	O	0.283477	0.137097	0.259039
	C2867	C	0.084140	0.601255	0.423716
	O2868	O	0.079617	0.623352	0.421434
	O2869	O	0.088663	0.579158	0.425998
	C2870	C	0.914720	0.632918	0.095041
	O2871	O	0.923266	0.637886	0.125145
	O2872	O	0.906186	0.627974	0.064936
	C2873	C	0.511240	0.485936	0.847188
	O2874	O	0.498024	0.458470	0.838683
	O2875	O	0.524476	0.513402	0.855692
	C2876	C	0.361957	0.519168	0.665991
	O2877	O	0.371107	0.542387	0.683597
	O2878	O	0.352806	0.495949	0.648385
	C2879	C	0.705299	0.168268	0.642570
	O2880	O	0.718688	0.195467	0.652053
	O2881	O	0.691910	0.141069	0.633115
	C2882	C	0.960387	0.375580	0.338076
	O2883	O	0.956067	0.389736	0.360709
	O2884	O	0.964697	0.361449	0.315416
	C2885	C	0.910460	0.759180	0.593719
	O2886	O	0.894870	0.770511	0.603391
	O2887	O	0.926050	0.747848	0.584046
	C2888	C	0.533208	0.994950	0.078032
	O2889	O	0.520937	0.976577	0.102431
	O2890	O	0.545470	1.013348	0.053661
	C2891	C	0.556877	0.933836	0.100149
	O2892	O	0.569797	0.938325	0.128324
	O2893	O	0.543957	0.929347	0.071973
	C2894	C	0.617831	0.372081	0.998416
	O2895	O	0.622356	0.368072	0.968556
	O2896	O	0.613285	0.376089	1.028276
	C2897	C	0.780360	0.218264	0.271157
	O2898	O	0.770644	0.201930	0.297430
	O2899	O	0.790076	0.234598	0.244883
	C2900	C	0.082884	0.725281	0.142452
	O2901	O	0.103528	0.718347	0.143838
	O2902	O	0.062240	0.732214	0.141067
	C2903	C	0.324980	0.575628	0.924350
	O2904	O	0.312754	0.558392	0.899870
	O2905	O	0.337197	0.592888	0.948858
	C2906	C	0.112571	0.537750	0.999041
	O2907	O	0.112253	0.549988	1.025885
	O2908	O	0.112901	0.525538	0.972170
	C2909	C	0.589445	0.446465	0.887725
	O2910	O	0.613250	0.471350	0.879900
	O2911	O	0.565627	0.421555	0.895550
	C2912	C	0.587673	0.986839	0.762662
	O2913	O	0.592870	0.995116	0.732313
	O2914	O	0.582477	0.978563	0.793011
	C2915	C	0.120292	0.116372	0.172502
	O2916	O	0.129422	0.141423	0.186495
	O2917	O	0.111162	0.091321	0.158510
	C2918	C	0.376260	0.159709	0.984885
	O2919	O	0.376728	0.142007	0.963801
	O2920	O	0.375780	0.177387	1.005969
	C2921	C	0.416808	0.642737	0.016519
	O2922	O	0.391514	0.624261	0.030349
	O2923	O	0.442089	0.661188	0.002717
	C2924	C	0.210846	0.460552	0.888649
	O2925	O	0.205514	0.433858	0.894219
	O2926	O	0.216157	0.487246	0.883052
	C2927	C	0.761885	0.816482	0.169486
	O2928	O	0.784860	0.843160	0.168291
	O2929	O	0.738918	0.789781	0.170655
	C2930	C	0.898680	0.775133	0.779100
	O2931	O	0.900010	0.778420	0.810345
	O2932	O	0.897363	0.771870	0.747881
	C2933	C	0.940396	0.702616	0.995454
	O2934	O	0.937610	0.701000	1.026836
	O2935	O	0.943168	0.704207	0.964073
	C2936	C	0.001737	0.105388	0.297620
	O2937	O	0.026346	0.105011	0.301478
	O2938	O	-0.022880	0.105789	0.293789
	C2939	C	0.104410	0.889977	0.899952
	O2940	O	0.128666	0.911019	0.886503
	O2941	O	0.080163	0.868910	0.913428
	C2942	C	0.155893	0.237153	0.496369
	O2943	O	0.162919	0.217249	0.490744
	O2944	O	0.148853	0.257032	0.501966
	C2945	C	0.453461	0.234053	0.902370
	O2946	O	0.471126	0.254842	0.882047
	O2947	O	0.435795	0.213265	0.922666
	C2948	C	0.596143	0.596784	0.491315
	O2949	O	0.587349	0.615806	0.492945
	O2950	O	0.604924	0.577738	0.489685
	C2951	C	0.681862	0.763386	0.951711
	O2952	O	0.666101	0.769171	0.971083
	O2953	O	0.697590	0.757577	0.932338
	C2954	C	0.912235	0.120566	0.911743
	O2955	O	0.892345	0.092560	0.913781
	O2956	O	0.932124	0.148573	0.909706
	C2957	C	0.216924	0.789226	0.234396
	O2958	O	0.238205	0.808700	0.252409
	O2959	O	0.195643	0.769753	0.216355
	C2960	C	0.280804	0.376160	0.675229
	O2961	O	0.278675	0.385099	0.703621
	O2962	O	0.282912	0.367221	0.646836
	C2963	C	0.586119	0.736346	0.298598
	O2964	O	0.603238	0.762433	0.310363
	O2965	O	0.568979	0.710260	0.286806
	C2966	C	0.205115	0.326880	0.401192
	O2967	O	0.184627	0.313134	0.423200
	O2968	O	0.225611	0.340601	0.379184
	C2969	C	0.606479	0.900607	0.215594
	O2970	O	0.622952	0.904544	0.190407
	O2971	O	0.589997	0.896695	0.240753
	C2972	C	0.086517	0.888280	0.242003
	O2973	O	0.066860	0.880379	0.264962
	O2974	O	0.106174	0.896180	0.219017
	C2975	C	0.920476	0.925589	0.819990
	O2976	O	0.931279	0.908959	0.812818
	O2977	O	0.909695	0.942219	0.827163
	C2978	C	0.570428	0.964214	0.422901
	O2979	O	0.557174	0.938092	0.410430
	O2980	O	0.583716	0.990361	0.435345
	C2981	C	0.916499	0.344296	0.734378
	O2982	O	0.911267	0.329306	0.761521
	O2983	O	0.921718	0.359262	0.707235
	C2984	C	0.523378	0.598457	0.420211
	O2985	O	0.507682	0.608826	0.432139
	O2986	O	0.539108	0.588112	0.408283
	C2987	C	0.810193	0.383917	0.031517
	O2988	O	0.801627	0.359236	0.047439
	O2989	O	0.818771	0.408624	0.015568
	C2990	C	0.956500	0.902565	0.901582
	O2991	O	0.975185	0.916393	0.877998
	O2992	O	0.937805	0.888761	0.925193
	C2993	C	0.429398	0.939469	0.414424
	O2994	O	0.448611	0.958428	0.434584
	O2995	O	0.410185	0.920510	0.394264
	C2996	C	0.214027	0.113442	0.184919
	O2997	O	0.211345	0.102026	0.213909
	O2998	O	0.216708	0.124858	0.155929
	C2999	C	0.415609	0.577395	0.950107
	O3000	O	0.406577	0.594864	0.959780
	O3001	O	0.424654	0.559951	0.940435
	C3002	C	0.267158	0.735245	0.710849
	O3003	O	0.295735	0.747593	0.706148
	O3004	O	0.238602	0.722898	0.715549
	C3005	C	0.041213	0.194135	0.340386
	O3006	O	0.025677	0.176200	0.317400
	O3007	O	0.056749	0.212071	0.363344
	C3008	C	0.710487	0.320519	0.037277
	O3009	O	0.696714	0.294215	0.025268
	O3010	O	0.724273	0.346849	0.049259
	C3011	C	0.179550	0.354234	0.020160
	O3012	O	0.202466	0.368957	0.001141
	O3013	O	0.156622	0.339486	0.039152
	C3014	C	0.748241	0.131246	0.866940
	O3015	O	0.720509	0.111409	0.861642
	O3016	O	0.775986	0.151107	0.872238
	C3017	C	0.800164	0.405518	0.135524
	O3018	O	0.797428	0.393173	0.163971
	O3019	O	0.802913	0.417888	0.107050
	C3020	C	0.705353	0.873757	0.658247
	O3021	O	0.694777	0.854433	0.635397
	O3022	O	0.715928	0.893081	0.681097
	C3023	C	0.590223	0.235611	0.179322
	O3024	O	0.604317	0.232444	0.155440
	O3025	O	0.576128	0.238778	0.203204
	C3026	C	0.497976	0.016115	0.675174
	O3027	O	0.521603	0.029115	0.656889
	O3028	O	0.474350	0.003115	0.693433
	C3029	C	0.607188	0.550293	0.231977
	O3030	O	0.589317	0.548533	0.254773
	O3031	O	0.625058	0.552052	0.209182
	C3032	C	0.533427	0.263813	0.077190
	O3033	O	0.518074	0.260950	0.103029
	O3034	O	0.548789	0.266650	0.051351
	C3035	C	0.473793	0.778444	0.503704
	O3036	O	0.445730	0.765740	0.495771
	O3037	O	0.501834	0.791147	0.511665
	C3038	C	0.245817	0.463391	0.313813
	O3039	O	0.230214	0.471334	0.330550
	O3040	O	0.261386	0.455424	0.297050
	C3041	C	0.080824	0.251427	0.611162
	O3042	O	0.074235	0.272037	0.613743
	O3043	O	0.087404	0.230841	0.608608
	C3044	C	0.897301	0.438730	0.221354
	O3045	O	0.874267	0.412903	0.228092
	O3046	O	0.920349	0.464582	0.214616
	C3047	C	0.089754	0.515840	0.211926
	O3048	O	0.113857	0.538023	0.199536
	O3049	O	0.065672	0.493657	0.224315
	C3050	C	0.497326	0.796732	0.805590
	O3051	O	0.500720	0.816473	0.826239
	O3052	O	0.493932	0.776991	0.784941
	C3053	C	0.235541	0.265079	0.125906
	O3054	O	0.230144	0.239278	0.117075
	O3055	O	0.240938	0.290880	0.134763
	C3056	C	0.951519	0.237924	0.232466
	O3057	O	0.939621	0.231859	0.261212
	O3058	O	0.963452	0.244014	0.203721
	C3059	C	0.246802	0.943723	0.465857
	O3060	O	0.238873	0.921137	0.447571
	O3061	O	0.254731	0.966309	0.484169
	C3062	C	0.268449	0.615320	0.493706
	O3063	O	0.287149	0.606134	0.490337
	O3064	O	0.249749	0.624505	0.497075
	C3065	C	0.371283	0.511895	0.330523
	O3066	O	0.372567	0.532048	0.349189
	O3067	O	0.370020	0.491742	0.311884
	C3068	C	0.446671	0.617273	0.719298
	O3069	O	0.446587	0.638952	0.733617
	O3070	O	0.446789	0.595620	0.704980
	C3071	C	0.282335	0.715911	0.007146
	O3072	O	0.280639	0.723420	0.036462
	O3073	O	0.284030	0.708403	-0.022198
	C3074	C	0.793859	0.924949	0.140849
	O3075	O	0.817290	0.949155	0.150250
	O3076	O	0.770419	0.900769	0.131421
	C3077	C	0.384107	0.957437	0.664931
	O3078	O	0.407270	0.964315	0.647108
	O3079	O	0.360952	0.950535	0.682728
	C3080	C	0.456978	0.223022	0.576330
	O3081	O	0.477367	0.245755	0.560055
	O3082	O	0.436610	0.200288	0.592605
	C3083	C	0.394937	0.335515	0.408419
	O3084	O	0.383973	0.307120	0.407713
	O3085	O	0.405901	0.363910	0.409126
	C3086	C	0.635338	0.188217	0.578014
	O3087	O	0.655875	0.181220	0.576493
	O3088	O	0.614802	0.195213	0.579563
	C3089	C	0.760702	0.372861	0.772253
	O3090	O	0.751325	0.385513	0.751685
	O3091	O	0.770091	0.360234	0.792820
	C3092	C	0.123188	0.246602	0.327100
	O3093	O	0.121331	0.225868	0.309004
	O3094	O	0.125058	0.267362	0.345168
	C3095	C	0.250340	0.225458	0.520903
	O3096	O	0.265306	0.221061	0.499031
	O3097	O	0.235339	0.229831	0.542748
	C3098	C	0.824476	0.730362	0.417684
	O3099	O	0.815334	0.712785	0.443061
	O3100	O	0.833618	0.747939	0.392308
	C3101	C	0.906839	0.996047	0.704110
	O3102	O	0.911693	1.018742	0.686124
	O3103	O	0.901963	0.973352	0.722097
	C3104	C	0.484834	0.179501	0.149870
	O3105	O	0.457405	0.173592	0.150821
	O3106	O	0.512285	0.185411	0.148919
	C3107	C	0.815430	0.743759	0.794342
	O3108	O	0.803400	0.727653	0.820371
	O3109	O	0.827452	0.759889	0.768340
	C3110	C	0.792461	0.555869	0.910548
	O3111	O	0.812249	0.576166	0.891257
	O3112	O	0.772660	0.535547	0.929839
	C3113	C	0.067187	0.308903	0.688080
	O3114	O	0.038794	0.289845	0.685825
	O3115	O	0.095560	0.327961	0.690362
	C3116	C	0.681265	0.075252	0.246024
	O3117	O	0.692728	0.059805	0.256974
	O3118	O	0.669802	0.090699	0.235048
	C3119	C	0.713725	0.118835	0.563261
	O3120	O	0.690546	0.115941	0.547666
	O3121	O	0.736869	0.121704	0.578857
	C3122	C	0.600634	0.136906	0.992547
	O3123	O	0.620429	0.133990	0.976870
	O3124	O	0.580839	0.139823	1.008224
	C3125	C	0.891665	0.109413	0.129764
	O3126	O	0.913819	0.127448	0.147968
	O3127	O	0.869546	0.091404	0.111560
	C3128	C	0.499582	0.796803	0.108870
	O3129	O	0.504205	0.784995	0.083982
	O3130	O	0.494958	0.808612	0.133731
	C3131	C	0.250088	0.573939	0.850665
	O3132	O	0.271630	0.573177	0.836075
	O3133	O	0.228513	0.574676	0.865256
	C3134	C	0.018449	0.578888	0.621595
	O3135	O	0.046180	0.595439	0.630154
	O3136	O	-0.009294	0.562311	0.613037
	C3137	C	0.554399	0.752151	0.648629
	O3138	O	0.562634	0.734724	0.636919
	O3139	O	0.546129	0.769554	0.660312
	C3140	C	0.510580	0.006823	0.351172
	O3141	O	0.523718	0.021502	0.324736
	O3142	O	0.497428	-0.007881	0.377609
	C3143	C	0.932704	0.023066	0.045265
	O3144	O	0.941842	0.038131	0.018122
	O3145	O	0.923587	0.008001	0.072408
	C3146	C	0.277575	0.195584	0.941141
	O3147	O	0.269053	0.171020	0.926334
	O3148	O	0.286098	0.220148	0.955922
	C3149	C	0.664316	0.845988	0.969806
	O3150	O	0.651971	0.829280	0.944945
	O3151	O	0.676639	0.862697	0.994666
	C3152	C	0.636270	0.559411	0.922340
	O3153	O	0.634452	0.548443	0.893947
	O3154	O	0.638053	0.570354	0.950732
	C3155	C	0.937970	0.241095	0.880226
	O3156	O	0.913401	0.235407	0.894382
	O3157	O	0.962551	0.246808	0.866071
	C3158	C	0.757156	0.579123	0.255833
	O3159	O	0.773551	0.575897	0.234776
	O3160	O	0.740748	0.582324	0.276917
	C3161	C	0.230428	0.452716	0.206872
	O3162	O	0.241094	0.475304	0.186848
	O3163	O	0.219784	0.430127	0.226897
	C3164	C	0.654696	0.913756	0.604179
	O3165	O	0.627558	0.900080	0.593012
	O3166	O	0.681833	0.927433	0.615319
	C3167	C	0.668143	0.067634	0.925981
	O3168	O	0.646935	0.068124	0.909516
	O3169	O	0.689364	0.067169	0.942446
	C3170	C	0.929442	0.018115	0.352014
	O3171	O	0.924309	0.019636	0.382472
	O3172	O	0.934542	0.016568	0.321584
	C3173	C	0.001612	0.725762	0.626377
	O3174	O	0.029638	0.745847	0.623280
	O3175	O	-0.026426	0.705653	0.629447
	C3176	C	0.539401	0.351601	0.384564
	O3177	O	0.528201	0.329180	0.404860
	O3178	O	0.550622	0.374022	0.364268
	C3179	C	0.025575	0.829778	0.650042
	O3180	O	0.010448	0.802763	0.640071
	O3181	O	0.040715	0.856818	0.660013
	C3182	C	0.205168	0.743819	0.095801
	O3183	O	0.222303	0.772393	0.096209
	O3184	O	0.188032	0.715245	0.095367
	C3185	C	0.571138	0.447313	0.002011
	O3186	O	0.555759	0.453847	0.021057
	O3187	O	0.586517	0.440779	-0.017036
	C3188	C	0.707576	0.487852	0.988689
	O3189	O	0.703662	0.510380	0.988308
	O3190	O	0.711481	0.465349	0.989069
	C3191	C	0.560116	0.760190	0.103518
	O3192	O	0.558213	0.772240	0.129818
	O3193	O	0.561998	0.748138	0.077244
	C3194	C	0.312696	0.737434	0.622003
	O3195	O	0.288172	0.722058	0.605701
	O3196	O	0.337233	0.752835	0.638305
	C3197	C	0.911233	0.772909	0.006874
	O3198	O	0.892193	0.781892	0.004510
	O3199	O	0.930273	0.763927	0.009238
	C3200	C	0.856897	0.928070	0.387743
	O3201	O	0.830856	0.924007	0.395079
	O3202	O	0.882951	0.932156	0.380434
	C3203	C	0.252917	0.233369	0.824392
	O3204	O	0.274259	0.227580	0.821892
	O3205	O	0.231597	0.239157	0.826919
	C3206	C	0.568283	0.433413	0.101860
	O3207	O	0.552434	0.409731	0.085124
	O3208	O	0.584132	0.457096	0.118570
	C3209	C	0.871206	0.495839	0.863707
	O3210	O	0.872610	0.520717	0.869304
	O3211	O	0.869802	0.470960	0.858110
	C3212	C	0.610832	0.709018	0.661698
	O3213	O	0.617272	0.702592	0.633876
	O3214	O	0.604380	0.715420	0.689520
	C3215	C	0.149530	0.910398	0.683760
	O3216	O	0.153058	0.929934	0.704735
	O3217	O	0.145980	0.890863	0.662758
	C3218	C	0.421119	0.769067	0.165900
	O3219	O	0.423514	0.791623	0.180843
	O3220	O	0.418744	0.746510	0.150984
	C3221	C	0.933213	0.907047	0.189076
	O3222	O	0.906821	0.894129	0.202172
	O3223	O	0.959584	0.919964	0.175980
	C3224	C	0.928312	0.780449	0.327045
	O3225	O	0.943181	0.768878	0.315824
	O3226	O	0.913465	0.792021	0.338294
	C3227	C	0.373265	0.768918	0.902152
	O3228	O	0.355273	0.773716	0.884410
	O3229	O	0.391245	0.764096	0.919894
	C3230	C	0.258226	0.112352	0.013123
	O3231	O	0.245266	0.127841	0.014454
	O3232	O	0.271207	0.096863	0.011792
	C3233	C	0.585209	0.748703	0.977196
	O3234	O	0.595865	0.776331	0.983853
	O3235	O	0.574553	0.721074	0.970539
	C3236	C	0.193352	0.755541	0.346771
	O3237	O	0.212419	0.778801	0.330143
	O3238	O	0.174264	0.732279	0.363426
	C3239	C	0.835265	0.505796	0.475448
	O3240	O	0.827518	0.481665	0.460097
	O3241	O	0.842991	0.529928	0.490826
	C3242	C	0.846890	0.326495	0.082053
	O3243	O	0.863848	0.340914	0.057410
	O3244	O	0.829898	0.312051	0.106697
	C3245	C	0.118816	0.375092	0.756576
	O3246	O	0.109391	0.358246	0.782496
	O3247	O	0.128263	0.391938	0.730628
	C3248	C	0.150253	0.474245	0.817844
	O3249	O	0.136711	0.447443	0.807166
	O3250	O	0.163817	0.501047	0.828549
	C3251	C	0.259253	0.011243	0.721553
	O3252	O	0.278096	0.036065	0.707181
	O3253	O	0.240376	-0.013604	0.735926
	C3254	C	0.091297	0.562552	0.912857
	O3255	O	0.107363	0.578160	0.888160
	O3256	O	0.075219	0.546920	0.937555
	C3257	C	0.903296	0.794427	0.894056
	O3258	O	0.882988	0.767602	0.902397
	O3259	O	0.923569	0.821228	0.885715
	C3260	C	0.145423	0.975160	0.014400
	O3261	O	0.170856	0.999909	0.014319
	O3262	O	0.119990	0.950412	0.014482
	C3263	C	0.053400	0.104434	0.545275
	O3264	O	0.068420	0.095462	0.562636
	O3265	O	0.038401	0.113406	0.527913
	C3266	C	0.811703	0.011873	0.065914
	O3267	O	0.830012	0.023193	0.041543
	O3268	O	0.793407	0.000577	0.090313
	C3269	C	0.139950	0.915911	0.783094
	O3270	O	0.168655	0.927386	0.785838
	O3271	O	0.111267	0.904435	0.780377
	C3272	C	0.008606	0.562650	0.936794
	O3273	O	-0.009579	0.541359	0.918101
	O3274	O	0.026790	0.583940	0.955514
	C3275	C	0.277608	0.899061	0.217360
	O3276	O	0.297065	0.901654	0.196140
	O3277	O	0.258143	0.896492	0.238580
	C3278	C	0.302542	0.257807	0.237900
	O3279	O	0.299891	0.250957	0.268684
	O3280	O	0.305194	0.264657	0.207117
	C3281	C	0.412741	0.820169	0.537042
	O3282	O	0.438491	0.832745	0.522533
	O3283	O	0.387001	0.807569	0.551551
	C3284	C	0.585543	0.446565	0.664524
	O3285	O	0.590014	0.426149	0.653764
	O3286	O	0.581107	0.467005	0.675310
	C3287	C	0.122452	0.905290	0.568505
	O3288	O	0.097483	0.891026	0.584481
	O3289	O	0.147413	0.919578	0.552556
	C3290	C	0.096344	0.255702	0.433660
	O3291	O	0.102228	0.234497	0.435861
	O3292	O	0.090460	0.276906	0.431459
	C3293	C	0.423591	0.876010	0.909977
	O3294	O	0.434741	0.902781	0.898294
	O3295	O	0.412440	0.849239	0.921660
	C3296	C	0.554646	0.297599	0.722423
	O3297	O	0.551820	0.274272	0.737475
	O3298	O	0.557473	0.320925	0.707398
	C3299	C	0.740089	0.614400	0.990319
	O3300	O	0.738884	0.623618	0.961084
	O3301	O	0.741306	0.605206	1.019554
	C3302	C	0.508439	0.346539	0.030811
	O3303	O	0.524515	0.359643	0.005162
	O3304	O	0.492385	0.333436	0.056432
	C3305	C	0.938032	0.756560	0.684222
	O3306	O	0.947517	0.741259	0.700089
	O3307	O	0.928524	0.771861	0.668382
	C3308	C	0.423350	0.694726	0.103871
	O3309	O	0.408260	0.704532	0.088058
	O3310	O	0.438418	0.684920	0.119684
	C3311	C	0.136075	0.910976	0.103409
	O3312	O	0.158342	0.927336	0.122401
	O3313	O	0.113821	0.894641	0.084417
	C3314	C	0.553424	0.141864	0.218936
	O3315	O	0.563452	0.169861	0.213746
	O3316	O	0.543375	0.113866	0.224125
	C3317	C	0.425629	0.053421	0.464553
	O3318	O	0.434142	0.051379	0.493815
	O3319	O	0.417128	0.055488	0.435290
	C3320	C	0.501447	0.735738	0.030784
	O3321	O	0.481752	0.718123	0.052031
	O3322	O	0.521122	0.753353	0.009564
	C3323	C	0.566802	0.787401	0.551497
	O3324	O	0.544699	0.761747	0.560626
	O3325	O	0.588917	0.813079	0.542395
	C3326	C	0.216015	0.765107	0.976164
	O3327	O	0.212664	0.779804	0.998932
	O3328	O	0.219357	0.750433	0.953395
	C3329	C	0.176060	0.564325	0.464634
	O3330	O	0.149850	0.561045	0.468873
	O3331	O	0.202283	0.567630	0.460396
	C3332	C	0.627703	0.396081	0.339951
	O3333	O	0.635425	0.402624	0.309656
	O3334	O	0.619990	0.389513	0.370245
	C3335	C	0.094420	0.393576	0.488163
	O3336	O	0.110882	0.385161	0.473926
	O3337	O	0.077967	0.401967	0.502400
	C3338	C	0.079702	0.805489	0.528945
	O3339	O	0.053396	0.787643	0.517154
	O3340	O	0.106007	0.823334	0.540737
	C3341	C	0.439163	0.268910	0.343320
	O3342	O	0.419026	0.245711	0.328322
	O3343	O	0.459334	0.292133	0.358318
	C3344	C	0.953971	0.860401	0.268901
	O3345	O	0.941504	0.875740	0.275069
	O3346	O	0.966461	0.845061	0.262761
	C3347	C	0.430832	0.369077	0.106289
	O3348	O	0.428861	0.390217	0.091699
	O3349	O	0.432812	0.347913	0.120879
	C3350	C	0.723199	0.654207	0.376304
	O3351	O	0.740895	0.682623	0.378424
	O3352	O	0.705516	0.625817	0.374185
	C3353	C	0.980254	0.579359	0.256403
	O3354	O	0.972565	0.566875	0.228337
	O3355	O	0.987943	0.591843	0.284470
	C3356	C	0.414595	0.014606	0.756277
	O3357	O	0.421065	-0.006195	0.755706
	O3358	O	0.408159	0.035431	0.756874
	C3359	C	0.193047	0.409766	0.433035
	O3360	O	0.212804	0.431813	0.449854
	O3361	O	0.173289	0.387719	0.416217
	C3362	C	0.786844	0.082588	0.491315
	O3363	O	0.783545	0.056401	0.493896
	O3364	O	0.790142	0.108774	0.488761
	C3365	C	0.465354	0.881623	0.116695
	O3366	O	0.489286	0.887963	0.133160
	O3367	O	0.441443	0.875283	0.100230
	C3368	C	0.922324	0.422072	0.049667
	O3369	O	0.899671	0.425304	0.043010
	O3370	O	0.944977	0.418841	0.056296
	C3371	C	0.226961	0.261847	0.448794
	O3372	O	0.217817	0.250384	0.420428
	O3373	O	0.236117	0.273335	0.477187
	C3374	C	0.178199	0.339606	0.680146
	O3375	O	0.160911	0.316636	0.698269
	O3376	O	0.195475	0.362551	0.661997
	C3377	C	0.439542	0.568219	0.242248
	O3378	O	0.454055	0.574947	0.214969
	O3379	O	0.425042	0.561517	0.269499
	C3380	C	0.787531	0.503271	0.560218
	O3381	O	0.771251	0.499300	0.534542
	O3382	O	0.803811	0.507243	0.585894
	C3383	C	0.189916	0.670168	0.346526
	O3384	O	0.195002	0.688197	0.322046
	O3385	O	0.184831	0.652139	0.371006
	C3386	C	0.783449	0.244010	0.475964
	O3387	O	0.802208	0.241101	0.494521
	O3388	O	0.764702	0.246944	0.457380
	C3389	C	0.404684	0.423081	0.855393
	O3390	O	0.399358	0.396925	0.848166
	O3391	O	0.409975	0.449213	0.862620
	C3392	C	0.263396	0.902870	0.878487
	O3393	O	0.243727	0.891774	0.901636
	O3394	O	0.283086	0.913967	0.855339
	C3395	C	0.066214	0.641700	0.700144
	O3396	O	0.049313	0.618727	0.718429
	O3397	O	0.083115	0.664674	0.681858
	C3398	C	0.248875	0.806541	0.472214
	O3399	O	0.251578	0.814277	0.441675
	O3400	O	0.246173	0.798806	0.502754
	C3401	C	0.231194	0.923818	0.104686
	O3402	O	0.211217	0.923919	0.085504
	O3403	O	0.251171	0.923718	0.123841
	C3404	C	0.568254	0.166191	0.894300
	O3405	O	0.572729	0.191617	0.903321
	O3406	O	0.563787	0.140740	0.885280
	C3407	C	0.582615	0.290832	0.443713
	O3408	O	0.593451	0.303976	0.471019
	O3409	O	0.571778	0.277688	0.416434
	C3410	C	0.940336	0.226091	0.569157
	O3411	O	0.945197	0.227724	0.538129
	O3412	O	0.935475	0.224457	0.600185
	C3413	C	0.011134	0.752973	0.922802
	O3414	O	0.020796	0.747122	0.949591
	O3415	O	0.001494	0.758824	0.896039
	C3416	C	0.809487	0.241930	0.035729
	O3417	O	0.790610	0.225710	0.013558
	O3418	O	0.828342	0.258150	0.057872
	C3419	C	0.901147	0.103203	0.005624
	O3420	O	0.900388	0.078416	0.001549
	O3421	O	0.901907	0.127989	0.009727
	C3422	C	0.637907	0.908081	0.914814
	O3423	O	0.634397	0.912805	0.944782
	O3424	O	0.641405	0.903332	0.884872
	C3425	C	0.611914	0.022222	0.029887
	O3426	O	0.602819	0.003381	0.054150
	O3427	O	0.621010	0.041063	0.005597
	C3428	C	0.125200	0.592835	0.132861
	O3429	O	0.152994	0.611682	0.139328
	O3430	O	0.097384	0.573988	0.126395
	C3431	C	0.426572	0.321054	0.021030
	O3432	O	0.447538	0.348693	0.018829
	O3433	O	0.405597	0.293440	0.023258
	C3434	C	0.387310	0.659003	0.378940
	O3435	O	0.377051	0.635763	0.361144
	O3436	O	0.397582	0.682267	0.396736
	C3437	C	0.770268	0.261345	0.761792
	O3438	O	0.788217	0.286767	0.774589
	O3439	O	0.752299	0.235922	0.748995
	C3440	C	0.425506	0.887243	0.214398
	O3441	O	0.404207	0.868851	0.233743
	O3442	O	0.446772	0.905611	0.195053
	C3443	C	0.438495	0.385003	0.789397
	O3444	O	0.435471	0.403842	0.771166
	O3445	O	0.441486	0.366138	0.807655
	C3446	C	0.736920	0.932717	0.006140
	O3447	O	0.725948	0.940105	-0.018367
	O3448	O	0.747901	0.925304	0.030648
	C3449	C	0.744247	0.791127	0.507889
	O3450	O	0.769445	0.815673	0.511611
	O3451	O	0.719048	0.766580	0.504166
	C3452	C	0.284376	0.362060	0.011520
	O3453	O	0.293570	0.366069	-0.018340
	O3454	O	0.275195	0.358074	0.041407
	C3455	C	0.966970	0.497050	0.289795
	O3456	O	0.995134	0.507235	0.284388
	O3457	O	0.938805	0.486867	0.295175
	C3458	C	0.901114	0.448472	0.968719
	O3459	O	0.896884	0.426413	0.951303
	O3460	O	0.905345	0.470533	0.986108
	C3461	C	0.140219	0.068568	0.765189
	O3462	O	0.152774	0.081632	0.737855
	O3463	O	0.127686	0.055504	0.792522
	C3464	C	0.638501	0.252221	0.915330
	O3465	O	0.635027	0.255126	0.945896
	O3466	O	0.641953	0.249316	0.884764
	C3467	C	0.318657	0.862599	0.924187
	O3468	O	0.336997	0.852792	0.926959
	O3469	O	0.300329	0.872431	0.921443
	C3470	C	0.341166	0.842187	0.655503
	O3471	O	0.362869	0.865112	0.669387
	O3472	O	0.319442	0.819262	0.641619
	C3473	C	0.075840	0.312805	0.014291
	O3474	O	0.059000	0.290554	0.033528
	O3475	O	0.092647	0.335031	-0.004945
	C3476	C	0.268362	0.896847	0.547231
	O3477	O	0.289853	0.897103	0.531336
	O3478	O	0.246848	0.896592	0.563098
	C3479	C	0.850565	0.437751	0.755434
	O3480	O	0.827188	0.420110	0.738508
	O3481	O	0.873933	0.455415	0.772389
	C3482	C	0.941192	0.901203	0.556767
	O3483	O	0.960214	0.904559	0.534542
	O3484	O	0.922183	0.897872	0.578965
	C3485	C	0.604061	0.674861	0.372039
	O3486	O	0.610172	0.681952	0.341527
	O3487	O	0.597938	0.667743	0.402578
	C3488	C	0.558601	0.447798	0.433226
	O3489	O	0.581983	0.465238	0.450261
	O3490	O	0.535206	0.430334	0.416190
	C3491	C	0.691840	0.224312	0.314846
	O3492	O	0.700201	0.240232	0.340712
	O3493	O	0.683445	0.208366	0.289007
	C3494	C	0.049071	0.668148	0.384265
	O3495	O	0.031764	0.640092	0.379130
	O3496	O	0.066357	0.696204	0.389400
	C3497	C	0.987801	0.076865	0.943858
	O3498	O	1.009823	0.076004	0.957932
	O3499	O	0.965771	0.077750	0.929811
	C3500	C	0.830624	0.676778	0.673354
	O3501	O	0.857499	0.690188	0.661562
	O3502	O	0.803726	0.663368	0.685173
	C3503	C	0.786781	0.425743	0.501531
	O3504	O	0.800455	0.410994	0.499113
	O3505	O	0.773095	0.440467	0.503949
	C3506	C	0.046386	0.440858	0.899164
	O3507	O	0.024616	0.444333	0.889084
	O3508	O	0.068177	0.437381	0.909271
	C3509	C	0.570651	0.451396	0.569999
	O3510	O	0.549947	0.426263	0.558778
	O3511	O	0.591378	0.476529	0.581220
	C3512	C	0.240937	0.444787	0.539053
	O3513	O	0.248241	0.466739	0.518702
	O3514	O	0.233634	0.422836	0.559376
	C3515	C	0.769805	0.542556	0.353264
	O3516	O	0.771676	0.556085	0.379891
	O3517	O	0.767912	0.529027	0.326638
	C3518	C	0.452891	0.242066	0.013639
	O3519	O	0.448955	0.216348	0.006765
	O3520	O	0.456860	0.267809	0.020513
	C3521	C	0.886916	0.933040	0.089607
	O3522	O	0.884388	0.937409	0.119983
	O3523	O	0.889431	0.928646	0.059231
	C3524	C	0.914096	0.787198	0.192554
	O3525	O	0.899246	0.765610	0.213284
	O3526	O	0.928954	0.808763	0.171796
	C3527	C	0.324736	0.257011	0.598473
	O3528	O	0.335737	0.265520	0.627301
	O3529	O	0.313747	0.248526	0.569646
	C3530	C	0.586099	0.641269	0.089715
	O3531	O	0.587138	0.641358	0.121233
	O3532	O	0.585047	0.641155	0.058198
	C3533	C	0.590674	0.271584	0.803851
	O3534	O	0.597290	0.250914	0.806541
	O3535	O	0.584070	0.292279	0.801162
	C3536	C	0.506940	0.674586	0.406735
	O3537	O	0.530614	0.690419	0.389101
	O3538	O	0.483252	0.658729	0.424368
	C3539	C	0.851147	0.831828	0.103762
	O3540	O	0.865038	0.857145	0.118054
	O3541	O	0.837247	0.806535	0.089471
	C3542	C	0.555242	0.447964	0.298761
	O3543	O	0.563053	0.462378	0.325660
	O3544	O	0.547431	0.433550	0.271836
	C3545	C	0.505480	0.187798	0.465748
	O3546	O	0.512072	0.213728	0.475556
	O3547	O	0.498867	0.161869	0.455940
	C3548	C	0.223020	0.136397	0.569619
	O3549	O	0.241171	0.164624	0.565299
	O3550	O	0.204891	0.108170	0.573939
	C3551	C	0.998659	0.751786	0.259310
	O3552	O	1.012285	0.746157	0.282541
	O3553	O	0.984997	0.757391	0.236080
	C3554	C	0.907654	0.627612	0.426053
	O3555	O	0.915907	0.619251	0.452136
	O3556	O	0.899379	0.635972	0.399997
	C3557	C	0.404500	0.412396	0.174948
	O3558	O	0.389347	0.425754	0.176415
	O3559	O	0.419653	0.399038	0.173508
	C3560	C	0.432496	0.153673	0.851127
	O3561	O	0.414600	0.126099	0.844253
	O3562	O	0.450404	0.181272	0.858001
	C3563	C	0.800844	0.883456	0.583150
	O3564	O	0.782583	0.859151	0.598827
	O3565	O	0.819105	0.907762	0.567472
	C3566	C	0.540979	0.907816	0.834526
	O3567	O	0.542389	0.914362	0.864930
	O3568	O	0.539569	0.901270	0.804123
	C3569	C	0.441069	0.836921	0.842623
	O3570	O	0.459146	0.865369	0.840748
	O3571	O	0.422991	0.808472	0.844498
	C3572	C	0.826431	0.477628	0.190543
	O3573	O	0.806471	0.484141	0.198667
	O3574	O	0.846391	0.471114	0.182447
	C3575	C	0.454206	0.252682	0.432492
	O3576	O	0.441554	0.227132	0.418717
	O3577	O	0.466836	0.278233	0.446240
	C3578	C	0.780400	0.584330	0.775622
	O3579	O	0.756721	0.558666	0.770894
	O3580	O	0.804088	0.609970	0.780322
	C3581	C	0.574542	0.626711	0.764210
	O3582	O	0.580250	0.636995	0.793391
	O3583	O	0.568843	0.616403	0.735030
	C3584	C	0.459704	0.210013	0.220349
	O3585	O	0.464303	0.188241	0.226027
	O3586	O	0.455118	0.231809	0.214697
	C3587	C	0.187773	0.818349	0.103355
	O3588	O	0.171834	0.798168	0.082434
	O3589	O	0.203699	0.838504	0.124303
	C3590	C	0.052102	0.008946	0.739241
	O3591	O	0.064081	0.034136	0.753696
	O3592	O	0.040110	-0.016269	0.724814
	C3593	C	0.332767	0.539540	0.255235
	O3594	O	0.340849	0.520135	0.251839
	O3595	O	0.324676	0.558971	0.258604
	C3596	C	0.376940	0.621584	0.655856
	O3597	O	0.384829	0.629329	0.685689
	O3598	O	0.369042	0.613863	0.626024
	C3599	C	0.137442	0.250562	0.824691
	O3600	O	0.115712	0.227841	0.810535
	O3601	O	0.159171	0.273283	0.838874
	C3602	C	0.380182	0.428394	0.563424
	O3603	O	0.360691	0.433055	0.548671
	O3604	O	0.399694	0.423733	0.578150
	C3605	C	0.034334	0.946652	0.633686
	O3606	O	0.005533	0.934249	0.636294
	O3607	O	0.063113	0.959055	0.631077
	C3608	C	0.924274	0.574857	0.177529
	O3609	O	0.945316	0.593132	0.157885
	O3610	O	0.903232	0.556583	0.197173
	C3611	C	0.104932	0.803109	0.845367
	O3612	O	0.091970	0.779104	0.828658
	O3613	O	0.117873	0.827113	0.862077
	C3614	C	0.463661	0.095974	0.830288
	O3615	O	0.479166	0.124562	0.826484
	O3616	O	0.448155	0.067386	0.834092
	C3617	C	0.258802	0.656221	0.727857
	O3618	O	0.264206	0.670309	0.700089
	O3619	O	0.253432	0.642158	0.755625
	C3620	C	0.809310	0.115160	0.829935
	O3621	O	0.830222	0.142353	0.824175
	O3622	O	0.788376	0.087968	0.835695
	C3623	C	0.632940	0.576262	0.578775
	O3624	O	0.620742	0.578640	0.604913
	O3625	O	0.645151	0.573909	0.552610
	C3626	C	0.771462	0.566174	0.494793
	O3627	O	0.780624	0.570924	0.524707
	O3628	O	0.762300	0.561424	0.464879
	C3629	C	0.703127	0.427702	0.569320
	O3630	O	0.680331	0.426329	0.554404
	O3631	O	0.725932	0.429051	0.584264
	C3632	C	0.846470	0.838872	0.858327
	O3633	O	0.826015	0.817091	0.841781
	O3634	O	0.866947	0.860653	0.874874
	C3635	C	0.111835	0.562101	0.534868
	O3636	O	0.091599	0.534931	0.528782
	O3637	O	0.132037	0.589246	0.540982
	C3638	C	0.994271	0.173016	0.240645
	O3639	O	1.009983	0.160355	0.237792
	O3640	O	0.978547	0.185652	0.243497
	C3641	C	0.258511	0.022683	0.026735
	O3642	O	0.271528	0.029405	-0.001440
	O3643	O	0.245516	0.015961	0.054911
	C3644	C	0.733537	0.974747	0.679875
	O3645	O	0.755066	0.992791	0.660638
	O3646	O	0.711973	0.956678	0.699138
	C3647	C	0.356859	0.434606	0.938098
	O3648	O	0.336074	0.441186	0.934648
	O3649	O	0.377665	0.428026	0.941549
	C3650	C	0.830189	0.686873	0.336962
	O3651	O	0.855497	0.696932	0.322046
	O3652	O	0.804890	0.676788	0.351906
	C3653	C	0.685458	0.758849	0.262435
	O3654	O	0.660411	0.754425	0.250236
	O3655	O	0.710514	0.763248	0.274661
	C3656	C	0.981817	0.167029	0.596110
	O3657	O	0.976104	0.141479	0.585921
	O3658	O	0.987529	0.192580	0.606298
	C3659	C	0.923705	0.335905	0.040021
	O3660	O	0.912661	0.317162	0.064311
	O3661	O	0.934770	0.354647	0.015759
	C3662	C	0.729791	0.610249	0.672593
	O3663	O	0.725382	0.608366	0.703730
	O3664	O	0.734187	0.612107	0.641456
	C3665	C	0.763752	0.046533	0.116532
	O3666	O	0.765652	0.066271	0.095530
	O3667	O	0.761874	0.026794	0.137562
	C3668	C	0.088571	0.964153	0.732503
	O3669	O	0.077665	0.937230	0.722858
	O3670	O	0.099477	0.991076	0.742121
	C3671	C	0.907954	0.115716	0.558534
	O3672	O	0.894384	0.088056	0.567744
	O3673	O	0.921546	0.143376	0.549323
	C3674	C	0.470875	0.481255	0.509655
	O3675	O	0.455468	0.453052	0.504492
	O3676	O	0.486316	0.509484	0.514817
	C3677	C	0.627090	0.066220	0.345032
	O3678	O	0.636917	0.081514	0.371278
	O3679	O	0.617264	0.050925	0.318813
	C3680	C	0.462744	0.934839	0.762961
	O3681	O	0.480385	0.958513	0.778937
	O3682	O	0.445112	0.911142	0.746957
	C3683	C	0.345111	0.077342	0.919650
	O3684	O	0.321265	0.075868	0.931088
	O3685	O	0.368944	0.078793	0.908184
	C3686	C	0.844405	0.681414	0.065616
	O3687	O	0.856795	0.704699	0.046597
	O3688	O	0.832002	0.658103	0.084635
	C3689	C	0.788893	0.167743	0.510415
	O3690	O	0.814489	0.182860	0.524897
	O3691	O	0.763284	0.152601	0.495907
	C3692	C	0.253453	0.733257	0.281698
	O3693	O	0.234091	0.738690	0.267923
	O3694	O	0.272806	0.727848	0.295474
	C3695	C	0.908166	0.121283	0.770976
	O3696	O	0.892390	0.107602	0.745735
	O3697	O	0.923955	0.134989	0.796217
	C3698	C	0.211969	0.133818	0.877754
	O3699	O	0.213460	0.156951	0.863707
	O3700	O	0.210478	0.110685	0.891801
	C3701	C	0.266843	0.587695	0.195705
	O3702	O	0.287188	0.591290	0.175138
	O3703	O	0.246498	0.584101	0.216273
	C3704	C	0.468112	0.393698	0.467976
	O3705	O	0.449554	0.365549	0.464933
	O3706	O	0.486691	0.421847	0.471019
	C3707	C	0.778758	0.888810	0.919270
	O3708	O	0.800009	0.911165	0.903348
	O3709	O	0.757541	0.866479	0.935218
	C3710	C	0.050876	0.441973	0.551823
	O3711	O	0.067986	0.435722	0.569266
	O3712	O	0.033756	0.448250	0.534379
	C3713	C	0.877849	0.117355	0.440100
	O3714	O	0.899362	0.130459	0.460993
	O3715	O	0.856328	0.104277	0.419206
	C3716	C	0.363220	0.779224	0.258468
	O3717	O	0.385025	0.785490	0.278492
	O3718	O	0.341380	0.772933	0.238444
	C3719	C	0.780820	0.127001	0.176659
	O3720	O	0.807458	0.134100	0.167313
	O3721	O	0.754204	0.119904	0.185979
	C3722	C	0.795068	0.224096	0.143865
	O3723	O	0.769774	0.217594	0.130443
	O3724	O	0.820361	0.230599	0.157287
	C3725	C	0.045193	0.959268	0.984749
	O3726	O	0.072911	0.969174	0.977223
	O3727	O	0.017487	0.949386	0.992302
	C3728	C	0.138236	0.725393	0.469959
	O3729	O	0.111739	0.702038	0.472051
	O3730	O	0.164734	0.748748	0.467867
	C3731	C	0.841080	0.057485	0.689846
	O3732	O	0.864478	0.060408	0.675365
	O3733	O	0.817694	0.054586	0.704328
	C3734	C	0.570131	0.586043	0.843384
	O3735	O	0.584987	0.581472	0.821539
	O3736	O	0.555297	0.590613	0.865256
	C3737	C	0.825272	0.326744	0.684575
	O3738	O	0.797445	0.314940	0.692916
	O3739	O	0.853100	0.338548	0.676234
	C3740	C	0.155067	0.485916	0.530739
	O3741	O	0.163190	0.509066	0.548100
	O3742	O	0.146931	0.462742	0.513350
	C3743	C	0.083573	0.947292	0.310499
	O3744	O	0.070270	0.955668	0.289632
	O3745	O	0.096888	0.938939	0.331392
	C3746	C	0.806877	0.912661	0.020975
	O3747	O	0.799522	0.896009	-0.004211
	O3748	O	0.814210	0.929313	0.046189
	C3749	C	0.120885	0.074511	0.458358
	O3750	O	0.106486	0.053161	0.479469
	O3751	O	0.135276	0.095885	0.437247
	C3752	C	0.093177	0.915052	0.418798
	O3753	O	0.087735	0.888927	0.411272
	O3754	O	0.098619	0.941177	0.426352
	C3755	C	0.677761	0.756265	0.592252
	O3756	O	0.663868	0.761913	0.569320
	O3757	O	0.691633	0.750618	0.615156
	C3758	C	0.934665	0.467362	0.648548
	O3759	O	0.914597	0.473307	0.657840
	O3760	O	0.954742	0.461392	0.639283
	C3761	C	0.473368	0.921653	0.012226
	O3762	O	0.465353	0.901260	-0.009211
	O3763	O	0.481384	0.942045	0.033691
	C3764	C	0.761481	0.038246	0.769101
	O3765	O	0.759963	0.058285	0.751495
	O3766	O	0.763008	0.018182	0.786707
	C3767	C	0.938625	0.572366	0.543454
	O3768	O	0.956337	0.577773	0.519028
	O3769	O	0.920893	0.566960	0.567880
	C3770	C	0.247557	0.626983	0.092432
	O3771	O	0.254784	0.639867	0.120309
	O3772	O	0.240330	0.614098	0.064583
	C3773	C	0.576791	0.886455	0.502998
	O3774	O	0.591836	0.883869	0.479741
	O3775	O	0.561767	0.889041	0.526283
	C3776	C	0.155286	0.668755	0.691503
	O3777	O	0.138153	0.646483	0.710550
	O3778	O	0.172440	0.691026	0.672484
	C3779	C	0.478895	0.906260	0.457298
	O3780	O	0.499492	0.915847	0.479523
	O3781	O	0.458312	0.896699	0.435073
	C3782	C	0.946989	0.608479	0.835477
	O3783	O	0.953798	0.590036	0.848899
	O3784	O	0.940203	0.626922	0.822055
	C3785	C	0.457406	0.557714	0.615129
	O3786	O	0.467042	0.570843	0.587062
	O3787	O	0.447737	0.544561	0.643195
	C3788	C	0.455285	0.538704	0.129710
	O3789	O	0.432821	0.540924	0.119303
	O3790	O	0.477726	0.536483	0.140143
	C3791	C	0.369908	0.123953	0.617194
	O3792	O	0.381492	0.122440	0.644798
	O3793	O	0.358312	0.125441	0.589589
	C3794	C	0.443553	0.255767	0.778937
	O3795	O	0.420438	0.229922	0.773421
	O3796	O	0.466659	0.281638	0.784452
	C3797	C	0.076871	0.714003	0.801977
	O3798	O	0.075149	0.722018	0.772307
	O3799	O	0.078593	0.705988	0.831646
	C3800	C	0.048116	0.648988	0.048064
	O3801	O	0.067764	0.670604	0.065398
	O3802	O	0.028455	0.627347	0.030729
	C3803	C	0.292471	0.386424	0.342614
	O3804	O	0.289909	0.377710	0.312917
	O3805	O	0.295020	0.395113	0.372310
	C3806	C	0.241859	0.087930	0.399589
	O3807	O	0.257032	0.077926	0.385569
	O3808	O	0.226651	0.097910	0.413582
	C3809	C	0.561082	0.780237	0.445887
	O3810	O	0.533830	0.764741	0.435345
	O3811	O	0.588333	0.795732	0.456456
	C3812	C	0.180607	0.017803	0.759646
	O3813	O	0.164164	-0.005608	0.777551
	O3814	O	0.197084	0.041238	0.741741
	C3815	C	0.773921	0.852169	0.820941
	O3816	O	0.758288	0.853877	0.797059
	O3817	O	0.789554	0.850461	0.844851
	C3818	C	0.878129	0.658614	0.748506
	O3819	O	0.867907	0.673320	0.732720
	O3820	O	0.888350	0.643909	0.764292
	C3821	C	0.176942	0.678008	0.021002
	O3822	O	0.148598	0.660959	0.026898
	O3823	O	0.205263	0.695057	0.015107
	C3824	C	0.717521	0.753205	0.862702
	O3825	O	0.705779	0.769865	0.861289
	O3826	O	0.729242	0.736545	0.864142
	C3827	C	0.110111	0.813533	0.216219
	O3828	O	0.135808	0.837949	0.216708
	O3829	O	0.084401	0.789094	0.215703
	C3830	C	0.754524	0.688542	0.073930
	O3831	O	0.744364	0.704475	0.060997
	O3832	O	0.764692	0.672584	0.086835
	C3833	C	0.102192	0.172191	0.239857
	O3834	O	0.119417	0.173160	0.263495
	O3835	O	0.084967	0.171221	0.216219
	C3836	C	0.891357	0.233019	0.507128
	O3837	O	0.894267	0.246090	0.534379
	O3838	O	0.888468	0.219950	0.479849
	C3839	C	0.213767	0.782003	0.827272
	O3840	O	0.240822	0.790713	0.836863
	O3841	O	0.186713	0.773294	0.817654
	C3842	C	0.960072	0.098456	0.687944
	O3843	O	0.964094	0.106290	0.657432
	O3844	O	0.956050	0.090621	0.718483
