data_Molecule from CHK

_cell_length_a		46.271781
_cell_length_b		46.523213
_cell_length_c		36.831865
_cell_angle_alpha	89.204580
_cell_angle_beta	89.222704
_cell_angle_gamma	119.227185
_symmetry_space_group_name_H-M	'P 1'
_symmetry_Int_Tables_number		1

loop_
	_symmetry_equiv_pos_as_xyz
	x,y,z

loop_
	_atom_site_label
	_atom_site_type_symbol
	_atom_site_fract_x
	_atom_site_fract_y
	_atom_site_fract_z
	C0	C	0.093599	-0.017594	0.189355
	C1	C	0.071896	-0.009027	0.205941
	C2	C	0.081607	0.009840	0.237280
	C3	C	0.111276	0.016896	0.253145
	C4	C	0.132169	0.006429	0.237546
	C5	C	0.123711	-0.010143	0.205192
	C6	C	0.039907	-0.025015	0.185465
	C7	C	0.078144	-0.035314	0.155470
	N8	N	0.045088	-0.041493	0.155885
	O9	O	0.090534	-0.043172	0.131479
	O10	O	0.014348	-0.025513	0.192554
	C11	C	0.114009	0.034860	0.287338
	C12	C	0.067611	0.028516	0.257425
	N13	N	0.088661	0.043411	0.287246
	O14	O	0.044455	0.031908	0.249615
	O15	O	0.133313	0.041171	0.311404
	C16	C	0.151078	-0.017052	0.194119
	C17	C	0.165774	0.011806	0.247825
	N18	N	0.175402	-0.003624	0.221001
	O19	O	0.182095	0.026165	0.273193
	O20	O	0.153324	-0.031150	0.168129
	C21	C	0.070620	0.091986	0.022272
	C22	C	0.065111	0.067249	-0.002599
	O23	O	0.034479	0.041548	-0.005719
	C24	C	0.091215	0.069943	-0.024992
	C25	C	0.122081	0.099038	-0.024282
	O26	O	0.146663	0.103434	-0.047808
	C27	C	0.128018	0.123800	0.000484
	C28	C	0.102642	0.118988	0.025087
	O29	O	0.109053	0.140692	0.051937
	H30	H	0.162243	0.099487	-0.032732
	H31	H	0.121444	0.134936	0.070007
	H32	H	0.031962	0.024822	0.012931
	C33	C	0.263197	0.020177	0.197589
	C34	C	0.268507	-0.000399	0.221757
	O35	O	0.298707	0.002305	0.223688
	C36	C	0.242628	-0.022946	0.244866
	C37	C	0.211931	-0.023469	0.244571
	O38	O	0.187309	-0.043500	0.268077
	C39	C	0.206119	-0.003531	0.220281
	C40	C	0.231343	0.016673	0.195454
	O41	O	0.224843	0.033060	0.169058
	H42	H	0.172370	-0.062675	0.253099
	H43	H	0.213625	0.016213	0.150137
	H44	H	0.300712	-0.010391	0.203152
	C45	C	-0.022785	0.243566	0.090833
	C46	C	-0.002932	0.268563	0.114737
	O47	O	-0.007109	0.295049	0.118122
	C48	C	0.020516	0.265423	0.135864
	C49	C	0.021003	0.235362	0.135784
	O50	O	0.040906	0.230465	0.158629
	C51	C	0.001338	0.210212	0.112224
	C52	C	-0.018575	0.215722	0.088005
	O53	O	-0.034136	0.193839	0.061648
	H54	H	0.059094	0.231862	0.142455
	H55	H	-0.016115	0.197914	0.043642
	H56	H	0.005774	0.310522	0.097758
	C57	C	0.238591	0.219978	0.033899
	C58	C	0.260061	0.250263	0.017583
	C59	C	0.251228	0.259550	-0.014967
	C60	C	0.222385	0.237465	-0.031746
	C61	C	0.201539	0.206398	-0.016039
	C62	C	0.209161	0.197979	0.017239
	C63	C	0.290833	0.266347	0.039996
	C64	C	0.253182	0.217167	0.068912
	N65	N	0.285510	0.244544	0.069787
	O66	O	0.240648	0.196509	0.092541
	O67	O	0.316146	0.291665	0.034524
	C68	C	0.220144	0.252993	-0.066619
	C69	C	0.265541	0.291853	-0.035994
	N70	N	0.245253	0.286270	-0.066676
	O71	O	0.288511	0.317704	-0.028140
	O72	O	0.201017	0.240731	-0.090767
	C73	C	0.182224	0.163838	0.027715
	C74	C	0.168489	0.178892	-0.027082
	N75	N	0.158671	0.153637	-0.000110
	O76	O	0.152517	0.177616	-0.052930
	O77	O	0.179379	0.147058	0.053977
	C78	C	0.019532	0.114962	0.079076
	C79	C	0.010621	0.084407	0.094784
	C80	C	-0.009327	0.074192	0.126396
	C81	C	-0.018293	0.095432	0.142850
	C82	C	-0.007852	0.126889	0.127908
	C83	C	0.010611	0.136413	0.095751
	C84	C	0.026927	0.068938	0.072725
	C85	C	0.039522	0.119056	0.045152
	N86	N	0.044816	0.091582	0.043984
	O87	O	0.049410	0.140841	0.022662
	O88	O	0.026869	0.043381	0.077884
	C89	C	-0.038326	0.078585	0.176600
	C90	C	-0.026806	0.041595	0.146734
	N91	N	-0.044327	0.045665	0.176195
	O92	O	-0.027678	0.016133	0.139602
	O93	O	-0.047754	0.089764	0.200118
	C94	C	0.017116	0.170426	0.085300
	C95	C	-0.014316	0.154330	0.138999
	N96	N	0.001959	0.180012	0.112505
	O97	O	-0.029729	0.155741	0.164607
	O98	O	0.031899	0.187647	0.059507
	C99	C	0.093599	-0.017594	0.522688
	C100	C	0.071896	-0.009027	0.539274
	C101	C	0.081607	0.009840	0.570613
	C102	C	0.111276	0.016896	0.586478
	C103	C	0.132169	0.006429	0.570879
	C104	C	0.123711	-0.010143	0.538525
	C105	C	0.039907	-0.025015	0.518798
	C106	C	0.078144	-0.035314	0.488803
	N107	N	0.045088	-0.041493	0.489218
	O108	O	0.090534	-0.043172	0.464812
	O109	O	0.014348	-0.025513	0.525888
	C110	C	0.114009	0.034860	0.620671
	C111	C	0.067611	0.028516	0.590758
	N112	N	0.088661	0.043411	0.620579
	O113	O	0.044455	0.031908	0.582948
	O114	O	0.133313	0.041171	0.644737
	C115	C	0.151078	-0.017052	0.527453
	C116	C	0.165774	0.011806	0.581158
	N117	N	0.175402	-0.003624	0.554335
	O118	O	0.182095	0.026165	0.606527
	O119	O	0.153324	-0.031150	0.501462
	C120	C	0.070620	0.091986	0.355605
	C121	C	0.065111	0.067249	0.330734
	O122	O	0.034479	0.041548	0.327615
	C123	C	0.091215	0.069943	0.308342
	C124	C	0.122081	0.099038	0.309051
	O125	O	0.146663	0.103434	0.285525
	C126	C	0.128018	0.123800	0.333817
	C127	C	0.102642	0.118988	0.358421
	O128	O	0.109053	0.140692	0.385271
	H129	H	0.162243	0.099487	0.300601
	H130	H	0.121444	0.134936	0.403340
	H131	H	0.031962	0.024822	0.346264
	C132	C	0.263197	0.020177	0.530923
	C133	C	0.268507	-0.000399	0.555090
	O134	O	0.298707	0.002305	0.557021
	C135	C	0.242628	-0.022946	0.578199
	C136	C	0.211931	-0.023469	0.577904
	O137	O	0.187309	-0.043500	0.601410
	C138	C	0.206119	-0.003531	0.553614
	C139	C	0.231343	0.016673	0.528788
	O140	O	0.224843	0.033060	0.502391
	H141	H	0.172370	-0.062675	0.586433
	H142	H	0.213625	0.016213	0.483470
	H143	H	0.300712	-0.010391	0.536485
	C144	C	-0.022785	0.243566	0.424167
	C145	C	-0.002932	0.268563	0.448070
	O146	O	-0.007109	0.295049	0.451455
	C147	C	0.020516	0.265423	0.469197
	C148	C	0.021003	0.235362	0.469117
	O149	O	0.040906	0.230465	0.491962
	C150	C	0.001338	0.210212	0.445558
	C151	C	-0.018575	0.215722	0.421338
	O152	O	-0.034136	0.193839	0.394981
	H153	H	0.059094	0.231862	0.475789
	H154	H	-0.016115	0.197914	0.376975
	H155	H	0.005774	0.310522	0.431092
	C156	C	0.238591	0.219978	0.367232
	C157	C	0.260061	0.250263	0.350916
	C158	C	0.251228	0.259550	0.318366
	C159	C	0.222385	0.237465	0.301588
	C160	C	0.201539	0.206398	0.317294
	C161	C	0.209161	0.197979	0.350572
	C162	C	0.290833	0.266347	0.373329
	C163	C	0.253182	0.217167	0.402246
	N164	N	0.285510	0.244544	0.403120
	O165	O	0.240648	0.196509	0.425875
	O166	O	0.316146	0.291665	0.367857
	C167	C	0.220144	0.252993	0.266714
	C168	C	0.265541	0.291853	0.297340
	N169	N	0.245253	0.286270	0.266658
	O170	O	0.288511	0.317704	0.305193
	O171	O	0.201017	0.240731	0.242566
	C172	C	0.182224	0.163838	0.361049
	C173	C	0.168489	0.178892	0.306252
	N174	N	0.158671	0.153637	0.333224
	O175	O	0.152517	0.177616	0.280404
	O176	O	0.179379	0.147058	0.387310
	C177	C	0.019532	0.114962	0.412409
	C178	C	0.010621	0.084407	0.428118
	C179	C	-0.009327	0.074192	0.459729
	C180	C	-0.018293	0.095432	0.476184
	C181	C	-0.007852	0.126889	0.461241
	C182	C	0.010611	0.136413	0.429085
	C183	C	0.026927	0.068938	0.406059
	C184	C	0.039522	0.119056	0.378485
	N185	N	0.044816	0.091582	0.377317
	O186	O	0.049410	0.140841	0.355996
	O187	O	0.026869	0.043381	0.411218
	C188	C	-0.038326	0.078585	0.509933
	C189	C	-0.026806	0.041595	0.480067
	N190	N	-0.044327	0.045665	0.509528
	O191	O	-0.027678	0.016133	0.472936
	O192	O	-0.047754	0.089764	0.533451
	C193	C	0.017116	0.170426	0.418633
	C194	C	-0.014316	0.154330	0.472332
	N195	N	0.001959	0.180012	0.445838
	O196	O	-0.029729	0.155741	0.497941
	O197	O	0.031899	0.187647	0.392840
	C198	C	0.093599	-0.017594	0.856022
	C199	C	0.071896	-0.009027	0.872607
	C200	C	0.081607	0.009840	0.903946
	C201	C	0.111276	0.016896	0.919811
	C202	C	0.132169	0.006429	0.904213
	C203	C	0.123711	-0.010143	0.871859
	C204	C	0.039907	-0.025015	0.852131
	C205	C	0.078144	-0.035314	0.822136
	N206	N	0.045088	-0.041493	0.822551
	O207	O	0.090534	-0.043172	0.798145
	O208	O	0.014348	-0.025513	0.859221
	C209	C	0.114009	0.034860	0.954004
	C210	C	0.067611	0.028516	0.924091
	N211	N	0.088661	0.043411	0.953913
	O212	O	0.044455	0.031908	0.916282
	O213	O	0.133313	0.041171	0.978071
	C214	C	0.151078	-0.017052	0.860786
	C215	C	0.165774	0.011806	0.914491
	N216	N	0.175402	-0.003624	0.887668
	O217	O	0.182095	0.026165	0.939860
	O218	O	0.153324	-0.031150	0.834795
	C219	C	0.070620	0.091986	0.688938
	C220	C	0.065111	0.067249	0.664068
	O221	O	0.034479	0.041548	0.660948
	C222	C	0.091215	0.069943	0.641675
	C223	C	0.122081	0.099038	0.642384
	O224	O	0.146663	0.103434	0.618858
	C225	C	0.128018	0.123800	0.667151
	C226	C	0.102642	0.118988	0.691754
	O227	O	0.109053	0.140692	0.718604
	H228	H	0.162243	0.099487	0.633935
	H229	H	0.121444	0.134936	0.736674
	H230	H	0.031962	0.024822	0.679598
	C231	C	0.263197	0.020177	0.864256
	C232	C	0.268507	-0.000399	0.888423
	O233	O	0.298707	0.002305	0.890355
	C234	C	0.242628	-0.022946	0.911532
	C235	C	0.211931	-0.023469	0.911238
	O236	O	0.187309	-0.043500	0.934744
	C237	C	0.206119	-0.003531	0.886947
	C238	C	0.231343	0.016673	0.862121
	O239	O	0.224843	0.033060	0.835724
	H240	H	0.172370	-0.062675	0.919766
	H241	H	0.213625	0.016213	0.816804
	H242	H	0.300712	-0.010391	0.869818
	C243	C	-0.022785	0.243566	0.757500
	C244	C	-0.002932	0.268563	0.781404
	O245	O	-0.007109	0.295049	0.784789
	C246	C	0.020516	0.265423	0.802531
	C247	C	0.021003	0.235362	0.802450
	O248	O	0.040906	0.230465	0.825296
	C249	C	0.001338	0.210212	0.778891
	C250	C	-0.018575	0.215722	0.754671
	O251	O	-0.034136	0.193839	0.728314
	H252	H	0.059094	0.231862	0.809122
	H253	H	-0.016115	0.197914	0.710309
	H254	H	0.005774	0.310522	0.764425
	C255	C	0.238591	0.219978	0.700565
	C256	C	0.260061	0.250263	0.684249
	C257	C	0.251228	0.259550	0.651699
	C258	C	0.222385	0.237465	0.634921
	C259	C	0.201539	0.206398	0.650628
	C260	C	0.209161	0.197979	0.683905
	C261	C	0.290833	0.266347	0.706662
	C262	C	0.253182	0.217167	0.735579
	N263	N	0.285510	0.244544	0.736454
	O264	O	0.240648	0.196509	0.759208
	O265	O	0.316146	0.291665	0.701190
	C266	C	0.220144	0.252993	0.600047
	C267	C	0.265541	0.291853	0.630673
	N268	N	0.245253	0.286270	0.599991
	O269	O	0.288511	0.317704	0.638527
	O270	O	0.201017	0.240731	0.575900
	C271	C	0.182224	0.163838	0.694382
	C272	C	0.168489	0.178892	0.639585
	N273	N	0.158671	0.153637	0.666557
	O274	O	0.152517	0.177616	0.613737
	O275	O	0.179379	0.147058	0.720644
	C276	C	0.019532	0.114962	0.745743
	C277	C	0.010621	0.084407	0.761451
	C278	C	-0.009327	0.074192	0.793063
	C279	C	-0.018293	0.095432	0.809517
	C280	C	-0.007852	0.126889	0.794574
	C281	C	0.010611	0.136413	0.762418
	C282	C	0.026927	0.068938	0.739392
	C283	C	0.039522	0.119056	0.711819
	N284	N	0.044816	0.091582	0.710651
	O285	O	0.049410	0.140841	0.689329
	O286	O	0.026869	0.043381	0.744551
	C287	C	-0.038326	0.078585	0.843266
	C288	C	-0.026806	0.041595	0.813401
	N289	N	-0.044327	0.045665	0.842861
	O290	O	-0.027678	0.016133	0.806269
	O291	O	-0.047754	0.089764	0.866784
	C292	C	0.017116	0.170426	0.751967
	C293	C	-0.014316	0.154330	0.805665
	N294	N	0.001959	0.180012	0.779172
	O295	O	-0.029729	0.155741	0.831274
	O296	O	0.031899	0.187647	0.726173
	C297	C	0.093599	0.315739	0.189355
	C298	C	0.071896	0.324307	0.205941
	C299	C	0.081607	0.343173	0.237280
	C300	C	0.111276	0.350229	0.253145
	C301	C	0.132169	0.339762	0.237546
	C302	C	0.123711	0.323190	0.205192
	C303	C	0.039907	0.308318	0.185465
	C304	C	0.078144	0.298019	0.155470
	N305	N	0.045088	0.291840	0.155885
	O306	O	0.090534	0.290162	0.131479
	O307	O	0.014348	0.307821	0.192554
	C308	C	0.114009	0.368194	0.287338
	C309	C	0.067611	0.361850	0.257425
	N310	N	0.088661	0.376745	0.287246
	O311	O	0.044455	0.365242	0.249615
	O312	O	0.133313	0.374505	0.311404
	C313	C	0.151078	0.316281	0.194119
	C314	C	0.165774	0.345139	0.247825
	N315	N	0.175402	0.329709	0.221001
	O316	O	0.182095	0.359499	0.273193
	O317	O	0.153324	0.302183	0.168129
	C318	C	0.070620	0.425320	0.022272
	C319	C	0.065111	0.400583	-0.002599
	O320	O	0.034479	0.374882	-0.005719
	C321	C	0.091215	0.403276	-0.024992
	C322	C	0.122081	0.432372	-0.024282
	O323	O	0.146663	0.436767	-0.047808
	C324	C	0.128018	0.457134	0.000484
	C325	C	0.102642	0.452321	0.025087
	O326	O	0.109053	0.474026	0.051937
	H327	H	0.162243	0.432820	-0.032732
	H328	H	0.121444	0.468270	0.070007
	H329	H	0.031962	0.358155	0.012931
	C330	C	0.263197	0.353510	0.197589
	C331	C	0.268507	0.332934	0.221757
	O332	O	0.298707	0.335638	0.223688
	C333	C	0.242628	0.310387	0.244866
	C334	C	0.211931	0.309864	0.244571
	O335	O	0.187309	0.289833	0.268077
	C336	C	0.206119	0.329802	0.220281
	C337	C	0.231343	0.350006	0.195454
	O338	O	0.224843	0.366393	0.169058
	H339	H	0.172370	0.270658	0.253099
	H340	H	0.213625	0.349547	0.150137
	H341	H	0.300712	0.322943	0.203152
	C342	C	-0.022785	0.576899	0.090833
	C343	C	-0.002932	0.601896	0.114737
	O344	O	-0.007109	0.628382	0.118122
	C345	C	0.020516	0.598757	0.135864
	C346	C	0.021003	0.568695	0.135784
	O347	O	0.040906	0.563798	0.158629
	C348	C	0.001338	0.543545	0.112224
	C349	C	-0.018575	0.549055	0.088005
	O350	O	-0.034136	0.527173	0.061648
	H351	H	0.059094	0.565195	0.142455
	H352	H	-0.016115	0.531247	0.043642
	H353	H	0.005774	0.643856	0.097758
	C354	C	0.238591	0.553312	0.033899
	C355	C	0.260061	0.583596	0.017583
	C356	C	0.251228	0.592884	-0.014967
	C357	C	0.222385	0.570798	-0.031746
	C358	C	0.201539	0.539731	-0.016039
	C359	C	0.209161	0.531312	0.017239
	C360	C	0.290833	0.599680	0.039996
	C361	C	0.253182	0.550500	0.068912
	N362	N	0.285510	0.577877	0.069787
	O363	O	0.240648	0.529843	0.092541
	O364	O	0.316146	0.624998	0.034524
	C365	C	0.220144	0.586327	-0.066619
	C366	C	0.265541	0.625187	-0.035994
	N367	N	0.245253	0.619603	-0.066676
	O368	O	0.288511	0.651037	-0.028140
	O369	O	0.201017	0.574064	-0.090767
	C370	C	0.182224	0.497171	0.027715
	C371	C	0.168489	0.512225	-0.027082
	N372	N	0.158671	0.486971	-0.000110
	O373	O	0.152517	0.510949	-0.052930
	O374	O	0.179379	0.480391	0.053977
	C375	C	0.019532	0.448296	0.079076
	C376	C	0.010621	0.417741	0.094784
	C377	C	-0.009327	0.407526	0.126396
	C378	C	-0.018293	0.428766	0.142850
	C379	C	-0.007852	0.460222	0.127908
	C380	C	0.010611	0.469746	0.095751
	C381	C	0.026927	0.402271	0.072725
	C382	C	0.039522	0.452389	0.045152
	N383	N	0.044816	0.424915	0.043984
	O384	O	0.049410	0.474174	0.022662
	O385	O	0.026869	0.376714	0.077884
	C386	C	-0.038326	0.411919	0.176600
	C387	C	-0.026806	0.374929	0.146734
	N388	N	-0.044327	0.378998	0.176195
	O389	O	-0.027678	0.349466	0.139602
	O390	O	-0.047754	0.423098	0.200118
	C391	C	0.017116	0.503759	0.085300
	C392	C	-0.014316	0.487664	0.138999
	N393	N	0.001959	0.513345	0.112505
	O394	O	-0.029729	0.489074	0.164607
	O395	O	0.031899	0.520980	0.059507
	C396	C	0.093599	0.315739	0.522688
	C397	C	0.071896	0.324307	0.539274
	C398	C	0.081607	0.343173	0.570613
	C399	C	0.111276	0.350229	0.586478
	C400	C	0.132169	0.339762	0.570879
	C401	C	0.123711	0.323190	0.538525
	C402	C	0.039907	0.308318	0.518798
	C403	C	0.078144	0.298019	0.488803
	N404	N	0.045088	0.291840	0.489218
	O405	O	0.090534	0.290162	0.464812
	O406	O	0.014348	0.307821	0.525888
	C407	C	0.114009	0.368194	0.620671
	C408	C	0.067611	0.361850	0.590758
	N409	N	0.088661	0.376745	0.620579
	O410	O	0.044455	0.365242	0.582948
	O411	O	0.133313	0.374505	0.644737
	C412	C	0.151078	0.316281	0.527453
	C413	C	0.165774	0.345139	0.581158
	N414	N	0.175402	0.329709	0.554335
	O415	O	0.182095	0.359499	0.606527
	O416	O	0.153324	0.302183	0.501462
	C417	C	0.070620	0.425320	0.355605
	C418	C	0.065111	0.400583	0.330734
	O419	O	0.034479	0.374882	0.327615
	C420	C	0.091215	0.403276	0.308342
	C421	C	0.122081	0.432372	0.309051
	O422	O	0.146663	0.436767	0.285525
	C423	C	0.128018	0.457134	0.333817
	C424	C	0.102642	0.452321	0.358421
	O425	O	0.109053	0.474026	0.385271
	H426	H	0.162243	0.432820	0.300601
	H427	H	0.121444	0.468270	0.403340
	H428	H	0.031962	0.358155	0.346264
	C429	C	0.263197	0.353510	0.530923
	C430	C	0.268507	0.332934	0.555090
	O431	O	0.298707	0.335638	0.557021
	C432	C	0.242628	0.310387	0.578199
	C433	C	0.211931	0.309864	0.577904
	O434	O	0.187309	0.289833	0.601410
	C435	C	0.206119	0.329802	0.553614
	C436	C	0.231343	0.350006	0.528788
	O437	O	0.224843	0.366393	0.502391
	H438	H	0.172370	0.270658	0.586433
	H439	H	0.213625	0.349547	0.483470
	H440	H	0.300712	0.322943	0.536485
	C441	C	-0.022785	0.576899	0.424167
	C442	C	-0.002932	0.601896	0.448070
	O443	O	-0.007109	0.628382	0.451455
	C444	C	0.020516	0.598757	0.469197
	C445	C	0.021003	0.568695	0.469117
	O446	O	0.040906	0.563798	0.491962
	C447	C	0.001338	0.543545	0.445558
	C448	C	-0.018575	0.549055	0.421338
	O449	O	-0.034136	0.527173	0.394981
	H450	H	0.059094	0.565195	0.475789
	H451	H	-0.016115	0.531247	0.376975
	H452	H	0.005774	0.643856	0.431092
	C453	C	0.238591	0.553312	0.367232
	C454	C	0.260061	0.583596	0.350916
	C455	C	0.251228	0.592884	0.318366
	C456	C	0.222385	0.570798	0.301588
	C457	C	0.201539	0.539731	0.317294
	C458	C	0.209161	0.531312	0.350572
	C459	C	0.290833	0.599680	0.373329
	C460	C	0.253182	0.550500	0.402246
	N461	N	0.285510	0.577877	0.403120
	O462	O	0.240648	0.529843	0.425875
	O463	O	0.316146	0.624998	0.367857
	C464	C	0.220144	0.586327	0.266714
	C465	C	0.265541	0.625187	0.297340
	N466	N	0.245253	0.619603	0.266658
	O467	O	0.288511	0.651037	0.305193
	O468	O	0.201017	0.574064	0.242566
	C469	C	0.182224	0.497171	0.361049
	C470	C	0.168489	0.512225	0.306252
	N471	N	0.158671	0.486971	0.333224
	O472	O	0.152517	0.510949	0.280404
	O473	O	0.179379	0.480391	0.387310
	C474	C	0.019532	0.448296	0.412409
	C475	C	0.010621	0.417741	0.428118
	C476	C	-0.009327	0.407526	0.459729
	C477	C	-0.018293	0.428766	0.476184
	C478	C	-0.007852	0.460222	0.461241
	C479	C	0.010611	0.469746	0.429085
	C480	C	0.026927	0.402271	0.406059
	C481	C	0.039522	0.452389	0.378485
	N482	N	0.044816	0.424915	0.377317
	O483	O	0.049410	0.474174	0.355996
	O484	O	0.026869	0.376714	0.411218
	C485	C	-0.038326	0.411919	0.509933
	C486	C	-0.026806	0.374929	0.480067
	N487	N	-0.044327	0.378998	0.509528
	O488	O	-0.027678	0.349466	0.472936
	O489	O	-0.047754	0.423098	0.533451
	C490	C	0.017116	0.503759	0.418633
	C491	C	-0.014316	0.487664	0.472332
	N492	N	0.001959	0.513345	0.445838
	O493	O	-0.029729	0.489074	0.497941
	O494	O	0.031899	0.520980	0.392840
	C495	C	0.093599	0.315739	0.856022
	C496	C	0.071896	0.324307	0.872607
	C497	C	0.081607	0.343173	0.903946
	C498	C	0.111276	0.350229	0.919811
	C499	C	0.132169	0.339762	0.904213
	C500	C	0.123711	0.323190	0.871859
	C501	C	0.039907	0.308318	0.852131
	C502	C	0.078144	0.298019	0.822136
	N503	N	0.045088	0.291840	0.822551
	O504	O	0.090534	0.290162	0.798145
	O505	O	0.014348	0.307821	0.859221
	C506	C	0.114009	0.368194	0.954004
	C507	C	0.067611	0.361850	0.924091
	N508	N	0.088661	0.376745	0.953913
	O509	O	0.044455	0.365242	0.916282
	O510	O	0.133313	0.374505	0.978071
	C511	C	0.151078	0.316281	0.860786
	C512	C	0.165774	0.345139	0.914491
	N513	N	0.175402	0.329709	0.887668
	O514	O	0.182095	0.359499	0.939860
	O515	O	0.153324	0.302183	0.834795
	C516	C	0.070620	0.425320	0.688938
	C517	C	0.065111	0.400583	0.664068
	O518	O	0.034479	0.374882	0.660948
	C519	C	0.091215	0.403276	0.641675
	C520	C	0.122081	0.432372	0.642384
	O521	O	0.146663	0.436767	0.618858
	C522	C	0.128018	0.457134	0.667151
	C523	C	0.102642	0.452321	0.691754
	O524	O	0.109053	0.474026	0.718604
	H525	H	0.162243	0.432820	0.633935
	H526	H	0.121444	0.468270	0.736674
	H527	H	0.031962	0.358155	0.679598
	C528	C	0.263197	0.353510	0.864256
	C529	C	0.268507	0.332934	0.888423
	O530	O	0.298707	0.335638	0.890355
	C531	C	0.242628	0.310387	0.911532
	C532	C	0.211931	0.309864	0.911238
	O533	O	0.187309	0.289833	0.934744
	C534	C	0.206119	0.329802	0.886947
	C535	C	0.231343	0.350006	0.862121
	O536	O	0.224843	0.366393	0.835724
	H537	H	0.172370	0.270658	0.919766
	H538	H	0.213625	0.349547	0.816804
	H539	H	0.300712	0.322943	0.869818
	C540	C	-0.022785	0.576899	0.757500
	C541	C	-0.002932	0.601896	0.781404
	O542	O	-0.007109	0.628382	0.784789
	C543	C	0.020516	0.598757	0.802531
	C544	C	0.021003	0.568695	0.802450
	O545	O	0.040906	0.563798	0.825296
	C546	C	0.001338	0.543545	0.778891
	C547	C	-0.018575	0.549055	0.754671
	O548	O	-0.034136	0.527173	0.728314
	H549	H	0.059094	0.565195	0.809122
	H550	H	-0.016115	0.531247	0.710309
	H551	H	0.005774	0.643856	0.764425
	C552	C	0.238591	0.553312	0.700565
	C553	C	0.260061	0.583596	0.684249
	C554	C	0.251228	0.592884	0.651699
	C555	C	0.222385	0.570798	0.634921
	C556	C	0.201539	0.539731	0.650628
	C557	C	0.209161	0.531312	0.683905
	C558	C	0.290833	0.599680	0.706662
	C559	C	0.253182	0.550500	0.735579
	N560	N	0.285510	0.577877	0.736454
	O561	O	0.240648	0.529843	0.759208
	O562	O	0.316146	0.624998	0.701190
	C563	C	0.220144	0.586327	0.600047
	C564	C	0.265541	0.625187	0.630673
	N565	N	0.245253	0.619603	0.599991
	O566	O	0.288511	0.651037	0.638527
	O567	O	0.201017	0.574064	0.575900
	C568	C	0.182224	0.497171	0.694382
	C569	C	0.168489	0.512225	0.639585
	N570	N	0.158671	0.486971	0.666557
	O571	O	0.152517	0.510949	0.613737
	O572	O	0.179379	0.480391	0.720644
	C573	C	0.019532	0.448296	0.745743
	C574	C	0.010621	0.417741	0.761451
	C575	C	-0.009327	0.407526	0.793063
	C576	C	-0.018293	0.428766	0.809517
	C577	C	-0.007852	0.460222	0.794574
	C578	C	0.010611	0.469746	0.762418
	C579	C	0.026927	0.402271	0.739392
	C580	C	0.039522	0.452389	0.711819
	N581	N	0.044816	0.424915	0.710651
	O582	O	0.049410	0.474174	0.689329
	O583	O	0.026869	0.376714	0.744551
	C584	C	-0.038326	0.411919	0.843266
	C585	C	-0.026806	0.374929	0.813401
	N586	N	-0.044327	0.378998	0.842861
	O587	O	-0.027678	0.349466	0.806269
	O588	O	-0.047754	0.423098	0.866784
	C589	C	0.017116	0.503759	0.751967
	C590	C	-0.014316	0.487664	0.805665
	N591	N	0.001959	0.513345	0.779172
	O592	O	-0.029729	0.489074	0.831274
	O593	O	0.031899	0.520980	0.726173
	C594	C	0.093599	0.649072	0.189355
	C595	C	0.071896	0.657640	0.205941
	C596	C	0.081607	0.676506	0.237280
	C597	C	0.111276	0.683562	0.253145
	C598	C	0.132169	0.673096	0.237546
	C599	C	0.123711	0.656523	0.205192
	C600	C	0.039907	0.641652	0.185465
	C601	C	0.078144	0.631352	0.155470
	N602	N	0.045088	0.625173	0.155885
	O603	O	0.090534	0.623495	0.131479
	O604	O	0.014348	0.641154	0.192554
	C605	C	0.114009	0.701527	0.287338
	C606	C	0.067611	0.695183	0.257425
	N607	N	0.088661	0.710078	0.287246
	O608	O	0.044455	0.698575	0.249615
	O609	O	0.133313	0.707838	0.311404
	C610	C	0.151078	0.649615	0.194119
	C611	C	0.165774	0.678473	0.247825
	N612	N	0.175402	0.663042	0.221001
	O613	O	0.182095	0.692832	0.273193
	O614	O	0.153324	0.635517	0.168129
	C615	C	0.070620	0.758653	0.022272
	C616	C	0.065111	0.733916	-0.002599
	O617	O	0.034479	0.708215	-0.005719
	C618	C	0.091215	0.736610	-0.024992
	C619	C	0.122081	0.765705	-0.024282
	O620	O	0.146663	0.770101	-0.047808
	C621	C	0.128018	0.790467	0.000484
	C622	C	0.102642	0.785654	0.025087
	O623	O	0.109053	0.807359	0.051937
	H624	H	0.162243	0.766154	-0.032732
	H625	H	0.121444	0.801603	0.070007
	H626	H	0.031962	0.691489	0.012931
	C627	C	0.263197	0.686843	0.197589
	C628	C	0.268507	0.666267	0.221757
	O629	O	0.298707	0.668971	0.223688
	C630	C	0.242628	0.643720	0.244866
	C631	C	0.211931	0.643197	0.244571
	O632	O	0.187309	0.623167	0.268077
	C633	C	0.206119	0.663135	0.220281
	C634	C	0.231343	0.683339	0.195454
	O635	O	0.224843	0.699726	0.169058
	H636	H	0.172370	0.603991	0.253099
	H637	H	0.213625	0.682880	0.150137
	H638	H	0.300712	0.656276	0.203152
	C639	C	-0.022785	0.910232	0.090833
	C640	C	-0.002932	0.935229	0.114737
	O641	O	-0.007109	0.961716	0.118122
	C642	C	0.020516	0.932090	0.135864
	C643	C	0.021003	0.902029	0.135784
	O644	O	0.040906	0.897132	0.158629
	C645	C	0.001338	0.876878	0.112224
	C646	C	-0.018575	0.882389	0.088005
	O647	O	-0.034136	0.860506	0.061648
	H648	H	0.059094	0.898528	0.142455
	H649	H	-0.016115	0.864581	0.043642
	H650	H	0.005774	0.977189	0.097758
	C651	C	0.238591	0.886645	0.033899
	C652	C	0.260061	0.916930	0.017583
	C653	C	0.251228	0.926217	-0.014967
	C654	C	0.222385	0.904131	-0.031746
	C655	C	0.201539	0.873064	-0.016039
	C656	C	0.209161	0.864645	0.017239
	C657	C	0.290833	0.933013	0.039996
	C658	C	0.253182	0.883833	0.068912
	N659	N	0.285510	0.911210	0.069787
	O660	O	0.240648	0.863176	0.092541
	O661	O	0.316146	0.958331	0.034524
	C662	C	0.220144	0.919660	-0.066619
	C663	C	0.265541	0.958520	-0.035994
	N664	N	0.245253	0.952937	-0.066676
	O665	O	0.288511	0.984371	-0.028140
	O666	O	0.201017	0.907398	-0.090767
	C667	C	0.182224	0.830504	0.027715
	C668	C	0.168489	0.845558	-0.027082
	N669	N	0.158671	0.820304	-0.000110
	O670	O	0.152517	0.844283	-0.052930
	O671	O	0.179379	0.813724	0.053977
	C672	C	0.019532	0.781629	0.079076
	C673	C	0.010621	0.751074	0.094784
	C674	C	-0.009327	0.740859	0.126396
	C675	C	-0.018293	0.762099	0.142850
	C676	C	-0.007852	0.793555	0.127908
	C677	C	0.010611	0.803080	0.095751
	C678	C	0.026927	0.735605	0.072725
	C679	C	0.039522	0.785723	0.045152
	N680	N	0.044816	0.758249	0.043984
	O681	O	0.049410	0.807508	0.022662
	O682	O	0.026869	0.710048	0.077884
	C683	C	-0.038326	0.745252	0.176600
	C684	C	-0.026806	0.708262	0.146734
	N685	N	-0.044327	0.712332	0.176195
	O686	O	-0.027678	0.682800	0.139602
	O687	O	-0.047754	0.756431	0.200118
	C688	C	0.017116	0.837092	0.085300
	C689	C	-0.014316	0.820997	0.138999
	N690	N	0.001959	0.846678	0.112505
	O691	O	-0.029729	0.822407	0.164607
	O692	O	0.031899	0.854314	0.059507
	C693	C	0.093599	0.649072	0.522688
	C694	C	0.071896	0.657640	0.539274
	C695	C	0.081607	0.676506	0.570613
	C696	C	0.111276	0.683562	0.586478
	C697	C	0.132169	0.673096	0.570879
	C698	C	0.123711	0.656523	0.538525
	C699	C	0.039907	0.641652	0.518798
	C700	C	0.078144	0.631352	0.488803
	N701	N	0.045088	0.625173	0.489218
	O702	O	0.090534	0.623495	0.464812
	O703	O	0.014348	0.641154	0.525888
	C704	C	0.114009	0.701527	0.620671
	C705	C	0.067611	0.695183	0.590758
	N706	N	0.088661	0.710078	0.620579
	O707	O	0.044455	0.698575	0.582948
	O708	O	0.133313	0.707838	0.644737
	C709	C	0.151078	0.649615	0.527453
	C710	C	0.165774	0.678473	0.581158
	N711	N	0.175402	0.663042	0.554335
	O712	O	0.182095	0.692832	0.606527
	O713	O	0.153324	0.635517	0.501462
	C714	C	0.070620	0.758653	0.355605
	C715	C	0.065111	0.733916	0.330734
	O716	O	0.034479	0.708215	0.327615
	C717	C	0.091215	0.736610	0.308342
	C718	C	0.122081	0.765705	0.309051
	O719	O	0.146663	0.770101	0.285525
	C720	C	0.128018	0.790467	0.333817
	C721	C	0.102642	0.785654	0.358421
	O722	O	0.109053	0.807359	0.385271
	H723	H	0.162243	0.766154	0.300601
	H724	H	0.121444	0.801603	0.403340
	H725	H	0.031962	0.691489	0.346264
	C726	C	0.263197	0.686843	0.530923
	C727	C	0.268507	0.666267	0.555090
	O728	O	0.298707	0.668971	0.557021
	C729	C	0.242628	0.643720	0.578199
	C730	C	0.211931	0.643197	0.577904
	O731	O	0.187309	0.623167	0.601410
	C732	C	0.206119	0.663135	0.553614
	C733	C	0.231343	0.683339	0.528788
	O734	O	0.224843	0.699726	0.502391
	H735	H	0.172370	0.603991	0.586433
	H736	H	0.213625	0.682880	0.483470
	H737	H	0.300712	0.656276	0.536485
	C738	C	-0.022785	0.910232	0.424167
	C739	C	-0.002932	0.935229	0.448070
	O740	O	-0.007109	0.961716	0.451455
	C741	C	0.020516	0.932090	0.469197
	C742	C	0.021003	0.902029	0.469117
	O743	O	0.040906	0.897132	0.491962
	C744	C	0.001338	0.876878	0.445558
	C745	C	-0.018575	0.882389	0.421338
	O746	O	-0.034136	0.860506	0.394981
	H747	H	0.059094	0.898528	0.475789
	H748	H	-0.016115	0.864581	0.376975
	H749	H	0.005774	0.977189	0.431092
	C750	C	0.238591	0.886645	0.367232
	C751	C	0.260061	0.916930	0.350916
	C752	C	0.251228	0.926217	0.318366
	C753	C	0.222385	0.904131	0.301588
	C754	C	0.201539	0.873064	0.317294
	C755	C	0.209161	0.864645	0.350572
	C756	C	0.290833	0.933013	0.373329
	C757	C	0.253182	0.883833	0.402246
	N758	N	0.285510	0.911210	0.403120
	O759	O	0.240648	0.863176	0.425875
	O760	O	0.316146	0.958331	0.367857
	C761	C	0.220144	0.919660	0.266714
	C762	C	0.265541	0.958520	0.297340
	N763	N	0.245253	0.952937	0.266658
	O764	O	0.288511	0.984371	0.305193
	O765	O	0.201017	0.907398	0.242566
	C766	C	0.182224	0.830504	0.361049
	C767	C	0.168489	0.845558	0.306252
	N768	N	0.158671	0.820304	0.333224
	O769	O	0.152517	0.844283	0.280404
	O770	O	0.179379	0.813724	0.387310
	C771	C	0.019532	0.781629	0.412409
	C772	C	0.010621	0.751074	0.428118
	C773	C	-0.009327	0.740859	0.459729
	C774	C	-0.018293	0.762099	0.476184
	C775	C	-0.007852	0.793555	0.461241
	C776	C	0.010611	0.803080	0.429085
	C777	C	0.026927	0.735605	0.406059
	C778	C	0.039522	0.785723	0.378485
	N779	N	0.044816	0.758249	0.377317
	O780	O	0.049410	0.807508	0.355996
	O781	O	0.026869	0.710048	0.411218
	C782	C	-0.038326	0.745252	0.509933
	C783	C	-0.026806	0.708262	0.480067
	N784	N	-0.044327	0.712332	0.509528
	O785	O	-0.027678	0.682800	0.472936
	O786	O	-0.047754	0.756431	0.533451
	C787	C	0.017116	0.837092	0.418633
	C788	C	-0.014316	0.820997	0.472332
	N789	N	0.001959	0.846678	0.445838
	O790	O	-0.029729	0.822407	0.497941
	O791	O	0.031899	0.854314	0.392840
	C792	C	0.093599	0.649072	0.856022
	C793	C	0.071896	0.657640	0.872607
	C794	C	0.081607	0.676506	0.903946
	C795	C	0.111276	0.683562	0.919811
	C796	C	0.132169	0.673096	0.904213
	C797	C	0.123711	0.656523	0.871859
	C798	C	0.039907	0.641652	0.852131
	C799	C	0.078144	0.631352	0.822136
	N800	N	0.045088	0.625173	0.822551
	O801	O	0.090534	0.623495	0.798145
	O802	O	0.014348	0.641154	0.859221
	C803	C	0.114009	0.701527	0.954004
	C804	C	0.067611	0.695183	0.924091
	N805	N	0.088661	0.710078	0.953913
	O806	O	0.044455	0.698575	0.916282
	O807	O	0.133313	0.707838	0.978071
	C808	C	0.151078	0.649615	0.860786
	C809	C	0.165774	0.678473	0.914491
	N810	N	0.175402	0.663042	0.887668
	O811	O	0.182095	0.692832	0.939860
	O812	O	0.153324	0.635517	0.834795
	C813	C	0.070620	0.758653	0.688938
	C814	C	0.065111	0.733916	0.664068
	O815	O	0.034479	0.708215	0.660948
	C816	C	0.091215	0.736610	0.641675
	C817	C	0.122081	0.765705	0.642384
	O818	O	0.146663	0.770101	0.618858
	C819	C	0.128018	0.790467	0.667151
	C820	C	0.102642	0.785654	0.691754
	O821	O	0.109053	0.807359	0.718604
	H822	H	0.162243	0.766154	0.633935
	H823	H	0.121444	0.801603	0.736674
	H824	H	0.031962	0.691489	0.679598
	C825	C	0.263197	0.686843	0.864256
	C826	C	0.268507	0.666267	0.888423
	O827	O	0.298707	0.668971	0.890355
	C828	C	0.242628	0.643720	0.911532
	C829	C	0.211931	0.643197	0.911238
	O830	O	0.187309	0.623167	0.934744
	C831	C	0.206119	0.663135	0.886947
	C832	C	0.231343	0.683339	0.862121
	O833	O	0.224843	0.699726	0.835724
	H834	H	0.172370	0.603991	0.919766
	H835	H	0.213625	0.682880	0.816804
	H836	H	0.300712	0.656276	0.869818
	C837	C	-0.022785	0.910232	0.757500
	C838	C	-0.002932	0.935229	0.781404
	O839	O	-0.007109	0.961716	0.784789
	C840	C	0.020516	0.932090	0.802531
	C841	C	0.021003	0.902029	0.802450
	O842	O	0.040906	0.897132	0.825296
	C843	C	0.001338	0.876878	0.778891
	C844	C	-0.018575	0.882389	0.754671
	O845	O	-0.034136	0.860506	0.728314
	H846	H	0.059094	0.898528	0.809122
	H847	H	-0.016115	0.864581	0.710309
	H848	H	0.005774	0.977189	0.764425
	C849	C	0.238591	0.886645	0.700565
	C850	C	0.260061	0.916930	0.684249
	C851	C	0.251228	0.926217	0.651699
	C852	C	0.222385	0.904131	0.634921
	C853	C	0.201539	0.873064	0.650628
	C854	C	0.209161	0.864645	0.683905
	C855	C	0.290833	0.933013	0.706662
	C856	C	0.253182	0.883833	0.735579
	N857	N	0.285510	0.911210	0.736454
	O858	O	0.240648	0.863176	0.759208
	O859	O	0.316146	0.958331	0.701190
	C860	C	0.220144	0.919660	0.600047
	C861	C	0.265541	0.958520	0.630673
	N862	N	0.245253	0.952937	0.599991
	O863	O	0.288511	0.984371	0.638527
	O864	O	0.201017	0.907398	0.575900
	C865	C	0.182224	0.830504	0.694382
	C866	C	0.168489	0.845558	0.639585
	N867	N	0.158671	0.820304	0.666557
	O868	O	0.152517	0.844283	0.613737
	O869	O	0.179379	0.813724	0.720644
	C870	C	0.019532	0.781629	0.745743
	C871	C	0.010621	0.751074	0.761451
	C872	C	-0.009327	0.740859	0.793063
	C873	C	-0.018293	0.762099	0.809517
	C874	C	-0.007852	0.793555	0.794574
	C875	C	0.010611	0.803080	0.762418
	C876	C	0.026927	0.735605	0.739392
	C877	C	0.039522	0.785723	0.711819
	N878	N	0.044816	0.758249	0.710651
	O879	O	0.049410	0.807508	0.689329
	O880	O	0.026869	0.710048	0.744551
	C881	C	-0.038326	0.745252	0.843266
	C882	C	-0.026806	0.708262	0.813401
	N883	N	-0.044327	0.712332	0.842861
	O884	O	-0.027678	0.682800	0.806269
	O885	O	-0.047754	0.756431	0.866784
	C886	C	0.017116	0.837092	0.751967
	C887	C	-0.014316	0.820997	0.805665
	N888	N	0.001959	0.846678	0.779172
	O889	O	-0.029729	0.822407	0.831274
	O890	O	0.031899	0.854314	0.726173
	C891	C	0.426932	-0.017594	0.189355
	C892	C	0.405229	-0.009027	0.205941
	C893	C	0.414941	0.009840	0.237280
	C894	C	0.444609	0.016896	0.253145
	C895	C	0.465502	0.006429	0.237546
	C896	C	0.457044	-0.010143	0.205192
	C897	C	0.373240	-0.025015	0.185465
	C898	C	0.411478	-0.035314	0.155470
	N899	N	0.378422	-0.041493	0.155885
	O900	O	0.423867	-0.043172	0.131479
	O901	O	0.347682	-0.025513	0.192554
	C902	C	0.447343	0.034860	0.287338
	C903	C	0.400944	0.028516	0.257425
	N904	N	0.421994	0.043411	0.287246
	O905	O	0.377789	0.031908	0.249615
	O906	O	0.466646	0.041171	0.311404
	C907	C	0.484411	-0.017052	0.194119
	C908	C	0.499107	0.011806	0.247825
	N909	N	0.508735	-0.003624	0.221001
	O910	O	0.515428	0.026165	0.273193
	O911	O	0.486657	-0.031150	0.168129
	C912	C	0.403953	0.091986	0.022272
	C913	C	0.398444	0.067249	-0.002599
	O914	O	0.367812	0.041548	-0.005719
	C915	C	0.424548	0.069943	-0.024992
	C916	C	0.455415	0.099038	-0.024282
	O917	O	0.479997	0.103434	-0.047808
	C918	C	0.461351	0.123800	0.000484
	C919	C	0.435975	0.118988	0.025087
	O920	O	0.442387	0.140692	0.051937
	H921	H	0.495577	0.099487	-0.032732
	H922	H	0.454777	0.134936	0.070007
	H923	H	0.365295	0.024822	0.012931
	C924	C	0.596530	0.020177	0.197589
	C925	C	0.601841	-0.000399	0.221757
	O926	O	0.632040	0.002305	0.223688
	C927	C	0.575962	-0.022946	0.244866
	C928	C	0.545264	-0.023469	0.244571
	O929	O	0.520643	-0.043500	0.268077
	C930	C	0.539453	-0.003531	0.220281
	C931	C	0.564676	0.016673	0.195454
	O932	O	0.558177	0.033060	0.169058
	H933	H	0.505704	-0.062675	0.253099
	H934	H	0.546959	0.016213	0.150137
	H935	H	0.634045	-0.010391	0.203152
	C936	C	0.310548	0.243566	0.090833
	C937	C	0.330401	0.268563	0.114737
	O938	O	0.326225	0.295049	0.118122
	C939	C	0.353849	0.265423	0.135864
	C940	C	0.354336	0.235362	0.135784
	O941	O	0.374239	0.230465	0.158629
	C942	C	0.334671	0.210212	0.112224
	C943	C	0.314759	0.215722	0.088005
	O944	O	0.299198	0.193839	0.061648
	H945	H	0.392427	0.231862	0.142455
	H946	H	0.317219	0.197914	0.043642
	H947	H	0.339107	0.310522	0.097758
	C948	C	0.571924	0.219978	0.033899
	C949	C	0.593395	0.250263	0.017583
	C950	C	0.584562	0.259550	-0.014967
	C951	C	0.555718	0.237465	-0.031746
	C952	C	0.534872	0.206398	-0.016039
	C953	C	0.542495	0.197979	0.017239
	C954	C	0.624166	0.266347	0.039996
	C955	C	0.586515	0.217167	0.068912
	N956	N	0.618844	0.244544	0.069787
	O957	O	0.573981	0.196509	0.092541
	O958	O	0.649480	0.291665	0.034524
	C959	C	0.553477	0.252993	-0.066619
	C960	C	0.598874	0.291853	-0.035994
	N961	N	0.578586	0.286270	-0.066676
	O962	O	0.621845	0.317704	-0.028140
	O963	O	0.534350	0.240731	-0.090767
	C964	C	0.515557	0.163838	0.027715
	C965	C	0.501822	0.178892	-0.027082
	N966	N	0.492004	0.153637	-0.000110
	O967	O	0.485851	0.177616	-0.052930
	O968	O	0.512713	0.147058	0.053977
	C969	C	0.352866	0.114962	0.079076
	C970	C	0.343954	0.084407	0.094784
	C971	C	0.324007	0.074192	0.126396
	C972	C	0.315041	0.095432	0.142850
	C973	C	0.325481	0.126889	0.127908
	C974	C	0.343944	0.136413	0.095751
	C975	C	0.360260	0.068938	0.072725
	C976	C	0.372856	0.119056	0.045152
	N977	N	0.378149	0.091582	0.043984
	O978	O	0.382744	0.140841	0.022662
	O979	O	0.360203	0.043381	0.077884
	C980	C	0.295008	0.078585	0.176600
	C981	C	0.306528	0.041595	0.146734
	N982	N	0.289006	0.045665	0.176195
	O983	O	0.305655	0.016133	0.139602
	O984	O	0.285579	0.089764	0.200118
	C985	C	0.350449	0.170426	0.085300
	C986	C	0.319017	0.154330	0.138999
	N987	N	0.335293	0.180012	0.112505
	O988	O	0.303604	0.155741	0.164607
	O989	O	0.365232	0.187647	0.059507
	C990	C	0.426932	-0.017594	0.522688
	C991	C	0.405229	-0.009027	0.539274
	C992	C	0.414941	0.009840	0.570613
	C993	C	0.444609	0.016896	0.586478
	C994	C	0.465502	0.006429	0.570879
	C995	C	0.457044	-0.010143	0.538525
	C996	C	0.373240	-0.025015	0.518798
	C997	C	0.411478	-0.035314	0.488803
	N998	N	0.378422	-0.041493	0.489218
	O999	O	0.423867	-0.043172	0.464812
	O1000	O	0.347682	-0.025513	0.525888
	C1001	C	0.447343	0.034860	0.620671
	C1002	C	0.400944	0.028516	0.590758
	N1003	N	0.421994	0.043411	0.620579
	O1004	O	0.377789	0.031908	0.582948
	O1005	O	0.466646	0.041171	0.644737
	C1006	C	0.484411	-0.017052	0.527453
	C1007	C	0.499107	0.011806	0.581158
	N1008	N	0.508735	-0.003624	0.554335
	O1009	O	0.515428	0.026165	0.606527
	O1010	O	0.486657	-0.031150	0.501462
	C1011	C	0.403953	0.091986	0.355605
	C1012	C	0.398444	0.067249	0.330734
	O1013	O	0.367812	0.041548	0.327615
	C1014	C	0.424548	0.069943	0.308342
	C1015	C	0.455415	0.099038	0.309051
	O1016	O	0.479997	0.103434	0.285525
	C1017	C	0.461351	0.123800	0.333817
	C1018	C	0.435975	0.118988	0.358421
	O1019	O	0.442387	0.140692	0.385271
	H1020	H	0.495577	0.099487	0.300601
	H1021	H	0.454777	0.134936	0.403340
	H1022	H	0.365295	0.024822	0.346264
	C1023	C	0.596530	0.020177	0.530923
	C1024	C	0.601841	-0.000399	0.555090
	O1025	O	0.632040	0.002305	0.557021
	C1026	C	0.575962	-0.022946	0.578199
	C1027	C	0.545264	-0.023469	0.577904
	O1028	O	0.520643	-0.043500	0.601410
	C1029	C	0.539453	-0.003531	0.553614
	C1030	C	0.564676	0.016673	0.528788
	O1031	O	0.558177	0.033060	0.502391
	H1032	H	0.505704	-0.062675	0.586433
	H1033	H	0.546959	0.016213	0.483470
	H1034	H	0.634045	-0.010391	0.536485
	C1035	C	0.310548	0.243566	0.424167
	C1036	C	0.330401	0.268563	0.448070
	O1037	O	0.326225	0.295049	0.451455
	C1038	C	0.353849	0.265423	0.469197
	C1039	C	0.354336	0.235362	0.469117
	O1040	O	0.374239	0.230465	0.491962
	C1041	C	0.334671	0.210212	0.445558
	C1042	C	0.314759	0.215722	0.421338
	O1043	O	0.299198	0.193839	0.394981
	H1044	H	0.392427	0.231862	0.475789
	H1045	H	0.317219	0.197914	0.376975
	H1046	H	0.339107	0.310522	0.431092
	C1047	C	0.571924	0.219978	0.367232
	C1048	C	0.593395	0.250263	0.350916
	C1049	C	0.584562	0.259550	0.318366
	C1050	C	0.555718	0.237465	0.301588
	C1051	C	0.534872	0.206398	0.317294
	C1052	C	0.542495	0.197979	0.350572
	C1053	C	0.624166	0.266347	0.373329
	C1054	C	0.586515	0.217167	0.402246
	N1055	N	0.618844	0.244544	0.403120
	O1056	O	0.573981	0.196509	0.425875
	O1057	O	0.649480	0.291665	0.367857
	C1058	C	0.553477	0.252993	0.266714
	C1059	C	0.598874	0.291853	0.297340
	N1060	N	0.578586	0.286270	0.266658
	O1061	O	0.621845	0.317704	0.305193
	O1062	O	0.534350	0.240731	0.242566
	C1063	C	0.515557	0.163838	0.361049
	C1064	C	0.501822	0.178892	0.306252
	N1065	N	0.492004	0.153637	0.333224
	O1066	O	0.485851	0.177616	0.280404
	O1067	O	0.512713	0.147058	0.387310
	C1068	C	0.352866	0.114962	0.412409
	C1069	C	0.343954	0.084407	0.428118
	C1070	C	0.324007	0.074192	0.459729
	C1071	C	0.315041	0.095432	0.476184
	C1072	C	0.325481	0.126889	0.461241
	C1073	C	0.343944	0.136413	0.429085
	C1074	C	0.360260	0.068938	0.406059
	C1075	C	0.372856	0.119056	0.378485
	N1076	N	0.378149	0.091582	0.377317
	O1077	O	0.382744	0.140841	0.355996
	O1078	O	0.360203	0.043381	0.411218
	C1079	C	0.295008	0.078585	0.509933
	C1080	C	0.306528	0.041595	0.480067
	N1081	N	0.289006	0.045665	0.509528
	O1082	O	0.305655	0.016133	0.472936
	O1083	O	0.285579	0.089764	0.533451
	C1084	C	0.350449	0.170426	0.418633
	C1085	C	0.319017	0.154330	0.472332
	N1086	N	0.335293	0.180012	0.445838
	O1087	O	0.303604	0.155741	0.497941
	O1088	O	0.365232	0.187647	0.392840
	C1089	C	0.426932	-0.017594	0.856022
	C1090	C	0.405229	-0.009027	0.872607
	C1091	C	0.414941	0.009840	0.903946
	C1092	C	0.444609	0.016896	0.919811
	C1093	C	0.465502	0.006429	0.904213
	C1094	C	0.457044	-0.010143	0.871859
	C1095	C	0.373240	-0.025015	0.852131
	C1096	C	0.411478	-0.035314	0.822136
	N1097	N	0.378422	-0.041493	0.822551
	O1098	O	0.423867	-0.043172	0.798145
	O1099	O	0.347682	-0.025513	0.859221
	C1100	C	0.447343	0.034860	0.954004
	C1101	C	0.400944	0.028516	0.924091
	N1102	N	0.421994	0.043411	0.953913
	O1103	O	0.377789	0.031908	0.916282
	O1104	O	0.466646	0.041171	0.978071
	C1105	C	0.484411	-0.017052	0.860786
	C1106	C	0.499107	0.011806	0.914491
	N1107	N	0.508735	-0.003624	0.887668
	O1108	O	0.515428	0.026165	0.939860
	O1109	O	0.486657	-0.031150	0.834795
	C1110	C	0.403953	0.091986	0.688938
	C1111	C	0.398444	0.067249	0.664068
	O1112	O	0.367812	0.041548	0.660948
	C1113	C	0.424548	0.069943	0.641675
	C1114	C	0.455415	0.099038	0.642384
	O1115	O	0.479997	0.103434	0.618858
	C1116	C	0.461351	0.123800	0.667151
	C1117	C	0.435975	0.118988	0.691754
	O1118	O	0.442387	0.140692	0.718604
	H1119	H	0.495577	0.099487	0.633935
	H1120	H	0.454777	0.134936	0.736674
	H1121	H	0.365295	0.024822	0.679598
	C1122	C	0.596530	0.020177	0.864256
	C1123	C	0.601841	-0.000399	0.888423
	O1124	O	0.632040	0.002305	0.890355
	C1125	C	0.575962	-0.022946	0.911532
	C1126	C	0.545264	-0.023469	0.911238
	O1127	O	0.520643	-0.043500	0.934744
	C1128	C	0.539453	-0.003531	0.886947
	C1129	C	0.564676	0.016673	0.862121
	O1130	O	0.558177	0.033060	0.835724
	H1131	H	0.505704	-0.062675	0.919766
	H1132	H	0.546959	0.016213	0.816804
	H1133	H	0.634045	-0.010391	0.869818
	C1134	C	0.310548	0.243566	0.757500
	C1135	C	0.330401	0.268563	0.781404
	O1136	O	0.326225	0.295049	0.784789
	C1137	C	0.353849	0.265423	0.802531
	C1138	C	0.354336	0.235362	0.802450
	O1139	O	0.374239	0.230465	0.825296
	C1140	C	0.334671	0.210212	0.778891
	C1141	C	0.314759	0.215722	0.754671
	O1142	O	0.299198	0.193839	0.728314
	H1143	H	0.392427	0.231862	0.809122
	H1144	H	0.317219	0.197914	0.710309
	H1145	H	0.339107	0.310522	0.764425
	C1146	C	0.571924	0.219978	0.700565
	C1147	C	0.593395	0.250263	0.684249
	C1148	C	0.584562	0.259550	0.651699
	C1149	C	0.555718	0.237465	0.634921
	C1150	C	0.534872	0.206398	0.650628
	C1151	C	0.542495	0.197979	0.683905
	C1152	C	0.624166	0.266347	0.706662
	C1153	C	0.586515	0.217167	0.735579
	N1154	N	0.618844	0.244544	0.736454
	O1155	O	0.573981	0.196509	0.759208
	O1156	O	0.649480	0.291665	0.701190
	C1157	C	0.553477	0.252993	0.600047
	C1158	C	0.598874	0.291853	0.630673
	N1159	N	0.578586	0.286270	0.599991
	O1160	O	0.621845	0.317704	0.638527
	O1161	O	0.534350	0.240731	0.575900
	C1162	C	0.515557	0.163838	0.694382
	C1163	C	0.501822	0.178892	0.639585
	N1164	N	0.492004	0.153637	0.666557
	O1165	O	0.485851	0.177616	0.613737
	O1166	O	0.512713	0.147058	0.720644
	C1167	C	0.352866	0.114962	0.745743
	C1168	C	0.343954	0.084407	0.761451
	C1169	C	0.324007	0.074192	0.793063
	C1170	C	0.315041	0.095432	0.809517
	C1171	C	0.325481	0.126889	0.794574
	C1172	C	0.343944	0.136413	0.762418
	C1173	C	0.360260	0.068938	0.739392
	C1174	C	0.372856	0.119056	0.711819
	N1175	N	0.378149	0.091582	0.710651
	O1176	O	0.382744	0.140841	0.689329
	O1177	O	0.360203	0.043381	0.744551
	C1178	C	0.295008	0.078585	0.843266
	C1179	C	0.306528	0.041595	0.813401
	N1180	N	0.289006	0.045665	0.842861
	O1181	O	0.305655	0.016133	0.806269
	O1182	O	0.285579	0.089764	0.866784
	C1183	C	0.350449	0.170426	0.751967
	C1184	C	0.319017	0.154330	0.805665
	N1185	N	0.335293	0.180012	0.779172
	O1186	O	0.303604	0.155741	0.831274
	O1187	O	0.365232	0.187647	0.726173
	C1188	C	0.426932	0.315739	0.189355
	C1189	C	0.405229	0.324307	0.205941
	C1190	C	0.414941	0.343173	0.237280
	C1191	C	0.444609	0.350229	0.253145
	C1192	C	0.465502	0.339762	0.237546
	C1193	C	0.457044	0.323190	0.205192
	C1194	C	0.373240	0.308318	0.185465
	C1195	C	0.411478	0.298019	0.155470
	N1196	N	0.378422	0.291840	0.155885
	O1197	O	0.423867	0.290162	0.131479
	O1198	O	0.347682	0.307821	0.192554
	C1199	C	0.447343	0.368194	0.287338
	C1200	C	0.400944	0.361850	0.257425
	N1201	N	0.421994	0.376745	0.287246
	O1202	O	0.377789	0.365242	0.249615
	O1203	O	0.466646	0.374505	0.311404
	C1204	C	0.484411	0.316281	0.194119
	C1205	C	0.499107	0.345139	0.247825
	N1206	N	0.508735	0.329709	0.221001
	O1207	O	0.515428	0.359499	0.273193
	O1208	O	0.486657	0.302183	0.168129
	C1209	C	0.403953	0.425320	0.022272
	C1210	C	0.398444	0.400583	-0.002599
	O1211	O	0.367812	0.374882	-0.005719
	C1212	C	0.424548	0.403276	-0.024992
	C1213	C	0.455415	0.432372	-0.024282
	O1214	O	0.479997	0.436767	-0.047808
	C1215	C	0.461351	0.457134	0.000484
	C1216	C	0.435975	0.452321	0.025087
	O1217	O	0.442387	0.474026	0.051937
	H1218	H	0.495577	0.432820	-0.032732
	H1219	H	0.454777	0.468270	0.070007
	H1220	H	0.365295	0.358155	0.012931
	C1221	C	0.596530	0.353510	0.197589
	C1222	C	0.601841	0.332934	0.221757
	O1223	O	0.632040	0.335638	0.223688
	C1224	C	0.575962	0.310387	0.244866
	C1225	C	0.545264	0.309864	0.244571
	O1226	O	0.520643	0.289833	0.268077
	C1227	C	0.539453	0.329802	0.220281
	C1228	C	0.564676	0.350006	0.195454
	O1229	O	0.558177	0.366393	0.169058
	H1230	H	0.505704	0.270658	0.253099
	H1231	H	0.546959	0.349547	0.150137
	H1232	H	0.634045	0.322943	0.203152
	C1233	C	0.310548	0.576899	0.090833
	C1234	C	0.330401	0.601896	0.114737
	O1235	O	0.326225	0.628382	0.118122
	C1236	C	0.353849	0.598757	0.135864
	C1237	C	0.354336	0.568695	0.135784
	O1238	O	0.374239	0.563798	0.158629
	C1239	C	0.334671	0.543545	0.112224
	C1240	C	0.314759	0.549055	0.088005
	O1241	O	0.299198	0.527173	0.061648
	H1242	H	0.392427	0.565195	0.142455
	H1243	H	0.317219	0.531247	0.043642
	H1244	H	0.339107	0.643856	0.097758
	C1245	C	0.571924	0.553312	0.033899
	C1246	C	0.593395	0.583596	0.017583
	C1247	C	0.584562	0.592884	-0.014967
	C1248	C	0.555718	0.570798	-0.031746
	C1249	C	0.534872	0.539731	-0.016039
	C1250	C	0.542495	0.531312	0.017239
	C1251	C	0.624166	0.599680	0.039996
	C1252	C	0.586515	0.550500	0.068912
	N1253	N	0.618844	0.577877	0.069787
	O1254	O	0.573981	0.529843	0.092541
	O1255	O	0.649480	0.624998	0.034524
	C1256	C	0.553477	0.586327	-0.066619
	C1257	C	0.598874	0.625187	-0.035994
	N1258	N	0.578586	0.619603	-0.066676
	O1259	O	0.621845	0.651037	-0.028140
	O1260	O	0.534350	0.574064	-0.090767
	C1261	C	0.515557	0.497171	0.027715
	C1262	C	0.501822	0.512225	-0.027082
	N1263	N	0.492004	0.486971	-0.000110
	O1264	O	0.485851	0.510949	-0.052930
	O1265	O	0.512713	0.480391	0.053977
	C1266	C	0.352866	0.448296	0.079076
	C1267	C	0.343954	0.417741	0.094784
	C1268	C	0.324007	0.407526	0.126396
	C1269	C	0.315041	0.428766	0.142850
	C1270	C	0.325481	0.460222	0.127908
	C1271	C	0.343944	0.469746	0.095751
	C1272	C	0.360260	0.402271	0.072725
	C1273	C	0.372856	0.452389	0.045152
	N1274	N	0.378149	0.424915	0.043984
	O1275	O	0.382744	0.474174	0.022662
	O1276	O	0.360203	0.376714	0.077884
	C1277	C	0.295008	0.411919	0.176600
	C1278	C	0.306528	0.374929	0.146734
	N1279	N	0.289006	0.378998	0.176195
	O1280	O	0.305655	0.349466	0.139602
	O1281	O	0.285579	0.423098	0.200118
	C1282	C	0.350449	0.503759	0.085300
	C1283	C	0.319017	0.487664	0.138999
	N1284	N	0.335293	0.513345	0.112505
	O1285	O	0.303604	0.489074	0.164607
	O1286	O	0.365232	0.520980	0.059507
	C1287	C	0.426932	0.315739	0.522688
	C1288	C	0.405229	0.324307	0.539274
	C1289	C	0.414941	0.343173	0.570613
	C1290	C	0.444609	0.350229	0.586478
	C1291	C	0.465502	0.339762	0.570879
	C1292	C	0.457044	0.323190	0.538525
	C1293	C	0.373240	0.308318	0.518798
	C1294	C	0.411478	0.298019	0.488803
	N1295	N	0.378422	0.291840	0.489218
	O1296	O	0.423867	0.290162	0.464812
	O1297	O	0.347682	0.307821	0.525888
	C1298	C	0.447343	0.368194	0.620671
	C1299	C	0.400944	0.361850	0.590758
	N1300	N	0.421994	0.376745	0.620579
	O1301	O	0.377789	0.365242	0.582948
	O1302	O	0.466646	0.374505	0.644737
	C1303	C	0.484411	0.316281	0.527453
	C1304	C	0.499107	0.345139	0.581158
	N1305	N	0.508735	0.329709	0.554335
	O1306	O	0.515428	0.359499	0.606527
	O1307	O	0.486657	0.302183	0.501462
	C1308	C	0.403953	0.425320	0.355605
	C1309	C	0.398444	0.400583	0.330734
	O1310	O	0.367812	0.374882	0.327615
	C1311	C	0.424548	0.403276	0.308342
	C1312	C	0.455415	0.432372	0.309051
	O1313	O	0.479997	0.436767	0.285525
	C1314	C	0.461351	0.457134	0.333817
	C1315	C	0.435975	0.452321	0.358421
	O1316	O	0.442387	0.474026	0.385271
	H1317	H	0.495577	0.432820	0.300601
	H1318	H	0.454777	0.468270	0.403340
	H1319	H	0.365295	0.358155	0.346264
	C1320	C	0.596530	0.353510	0.530923
	C1321	C	0.601841	0.332934	0.555090
	O1322	O	0.632040	0.335638	0.557021
	C1323	C	0.575962	0.310387	0.578199
	C1324	C	0.545264	0.309864	0.577904
	O1325	O	0.520643	0.289833	0.601410
	C1326	C	0.539453	0.329802	0.553614
	C1327	C	0.564676	0.350006	0.528788
	O1328	O	0.558177	0.366393	0.502391
	H1329	H	0.505704	0.270658	0.586433
	H1330	H	0.546959	0.349547	0.483470
	H1331	H	0.634045	0.322943	0.536485
	C1332	C	0.310548	0.576899	0.424167
	C1333	C	0.330401	0.601896	0.448070
	O1334	O	0.326225	0.628382	0.451455
	C1335	C	0.353849	0.598757	0.469197
	C1336	C	0.354336	0.568695	0.469117
	O1337	O	0.374239	0.563798	0.491962
	C1338	C	0.334671	0.543545	0.445558
	C1339	C	0.314759	0.549055	0.421338
	O1340	O	0.299198	0.527173	0.394981
	H1341	H	0.392427	0.565195	0.475789
	H1342	H	0.317219	0.531247	0.376975
	H1343	H	0.339107	0.643856	0.431092
	C1344	C	0.571924	0.553312	0.367232
	C1345	C	0.593395	0.583596	0.350916
	C1346	C	0.584562	0.592884	0.318366
	C1347	C	0.555718	0.570798	0.301588
	C1348	C	0.534872	0.539731	0.317294
	C1349	C	0.542495	0.531312	0.350572
	C1350	C	0.624166	0.599680	0.373329
	C1351	C	0.586515	0.550500	0.402246
	N1352	N	0.618844	0.577877	0.403120
	O1353	O	0.573981	0.529843	0.425875
	O1354	O	0.649480	0.624998	0.367857
	C1355	C	0.553477	0.586327	0.266714
	C1356	C	0.598874	0.625187	0.297340
	N1357	N	0.578586	0.619603	0.266658
	O1358	O	0.621845	0.651037	0.305193
	O1359	O	0.534350	0.574064	0.242566
	C1360	C	0.515557	0.497171	0.361049
	C1361	C	0.501822	0.512225	0.306252
	N1362	N	0.492004	0.486971	0.333224
	O1363	O	0.485851	0.510949	0.280404
	O1364	O	0.512713	0.480391	0.387310
	C1365	C	0.352866	0.448296	0.412409
	C1366	C	0.343954	0.417741	0.428118
	C1367	C	0.324007	0.407526	0.459729
	C1368	C	0.315041	0.428766	0.476184
	C1369	C	0.325481	0.460222	0.461241
	C1370	C	0.343944	0.469746	0.429085
	C1371	C	0.360260	0.402271	0.406059
	C1372	C	0.372856	0.452389	0.378485
	N1373	N	0.378149	0.424915	0.377317
	O1374	O	0.382744	0.474174	0.355996
	O1375	O	0.360203	0.376714	0.411218
	C1376	C	0.295008	0.411919	0.509933
	C1377	C	0.306528	0.374929	0.480067
	N1378	N	0.289006	0.378998	0.509528
	O1379	O	0.305655	0.349466	0.472936
	O1380	O	0.285579	0.423098	0.533451
	C1381	C	0.350449	0.503759	0.418633
	C1382	C	0.319017	0.487664	0.472332
	N1383	N	0.335293	0.513345	0.445838
	O1384	O	0.303604	0.489074	0.497941
	O1385	O	0.365232	0.520980	0.392840
	C1386	C	0.426932	0.315739	0.856022
	C1387	C	0.405229	0.324307	0.872607
	C1388	C	0.414941	0.343173	0.903946
	C1389	C	0.444609	0.350229	0.919811
	C1390	C	0.465502	0.339762	0.904213
	C1391	C	0.457044	0.323190	0.871859
	C1392	C	0.373240	0.308318	0.852131
	C1393	C	0.411478	0.298019	0.822136
	N1394	N	0.378422	0.291840	0.822551
	O1395	O	0.423867	0.290162	0.798145
	O1396	O	0.347682	0.307821	0.859221
	C1397	C	0.447343	0.368194	0.954004
	C1398	C	0.400944	0.361850	0.924091
	N1399	N	0.421994	0.376745	0.953913
	O1400	O	0.377789	0.365242	0.916282
	O1401	O	0.466646	0.374505	0.978071
	C1402	C	0.484411	0.316281	0.860786
	C1403	C	0.499107	0.345139	0.914491
	N1404	N	0.508735	0.329709	0.887668
	O1405	O	0.515428	0.359499	0.939860
	O1406	O	0.486657	0.302183	0.834795
	C1407	C	0.403953	0.425320	0.688938
	C1408	C	0.398444	0.400583	0.664068
	O1409	O	0.367812	0.374882	0.660948
	C1410	C	0.424548	0.403276	0.641675
	C1411	C	0.455415	0.432372	0.642384
	O1412	O	0.479997	0.436767	0.618858
	C1413	C	0.461351	0.457134	0.667151
	C1414	C	0.435975	0.452321	0.691754
	O1415	O	0.442387	0.474026	0.718604
	H1416	H	0.495577	0.432820	0.633935
	H1417	H	0.454777	0.468270	0.736674
	H1418	H	0.365295	0.358155	0.679598
	C1419	C	0.596530	0.353510	0.864256
	C1420	C	0.601841	0.332934	0.888423
	O1421	O	0.632040	0.335638	0.890355
	C1422	C	0.575962	0.310387	0.911532
	C1423	C	0.545264	0.309864	0.911238
	O1424	O	0.520643	0.289833	0.934744
	C1425	C	0.539453	0.329802	0.886947
	C1426	C	0.564676	0.350006	0.862121
	O1427	O	0.558177	0.366393	0.835724
	H1428	H	0.505704	0.270658	0.919766
	H1429	H	0.546959	0.349547	0.816804
	H1430	H	0.634045	0.322943	0.869818
	C1431	C	0.310548	0.576899	0.757500
	C1432	C	0.330401	0.601896	0.781404
	O1433	O	0.326225	0.628382	0.784789
	C1434	C	0.353849	0.598757	0.802531
	C1435	C	0.354336	0.568695	0.802450
	O1436	O	0.374239	0.563798	0.825296
	C1437	C	0.334671	0.543545	0.778891
	C1438	C	0.314759	0.549055	0.754671
	O1439	O	0.299198	0.527173	0.728314
	H1440	H	0.392427	0.565195	0.809122
	H1441	H	0.317219	0.531247	0.710309
	H1442	H	0.339107	0.643856	0.764425
	C1443	C	0.571924	0.553312	0.700565
	C1444	C	0.593395	0.583596	0.684249
	C1445	C	0.584562	0.592884	0.651699
	C1446	C	0.555718	0.570798	0.634921
	C1447	C	0.534872	0.539731	0.650628
	C1448	C	0.542495	0.531312	0.683905
	C1449	C	0.624166	0.599680	0.706662
	C1450	C	0.586515	0.550500	0.735579
	N1451	N	0.618844	0.577877	0.736454
	O1452	O	0.573981	0.529843	0.759208
	O1453	O	0.649480	0.624998	0.701190
	C1454	C	0.553477	0.586327	0.600047
	C1455	C	0.598874	0.625187	0.630673
	N1456	N	0.578586	0.619603	0.599991
	O1457	O	0.621845	0.651037	0.638527
	O1458	O	0.534350	0.574064	0.575900
	C1459	C	0.515557	0.497171	0.694382
	C1460	C	0.501822	0.512225	0.639585
	N1461	N	0.492004	0.486971	0.666557
	O1462	O	0.485851	0.510949	0.613737
	O1463	O	0.512713	0.480391	0.720644
	C1464	C	0.352866	0.448296	0.745743
	C1465	C	0.343954	0.417741	0.761451
	C1466	C	0.324007	0.407526	0.793063
	C1467	C	0.315041	0.428766	0.809517
	C1468	C	0.325481	0.460222	0.794574
	C1469	C	0.343944	0.469746	0.762418
	C1470	C	0.360260	0.402271	0.739392
	C1471	C	0.372856	0.452389	0.711819
	N1472	N	0.378149	0.424915	0.710651
	O1473	O	0.382744	0.474174	0.689329
	O1474	O	0.360203	0.376714	0.744551
	C1475	C	0.295008	0.411919	0.843266
	C1476	C	0.306528	0.374929	0.813401
	N1477	N	0.289006	0.378998	0.842861
	O1478	O	0.305655	0.349466	0.806269
	O1479	O	0.285579	0.423098	0.866784
	C1480	C	0.350449	0.503759	0.751967
	C1481	C	0.319017	0.487664	0.805665
	N1482	N	0.335293	0.513345	0.779172
	O1483	O	0.303604	0.489074	0.831274
	O1484	O	0.365232	0.520980	0.726173
	C1485	C	0.426932	0.649072	0.189355
	C1486	C	0.405229	0.657640	0.205941
	C1487	C	0.414941	0.676506	0.237280
	C1488	C	0.444609	0.683562	0.253145
	C1489	C	0.465502	0.673096	0.237546
	C1490	C	0.457044	0.656523	0.205192
	C1491	C	0.373240	0.641652	0.185465
	C1492	C	0.411478	0.631352	0.155470
	N1493	N	0.378422	0.625173	0.155885
	O1494	O	0.423867	0.623495	0.131479
	O1495	O	0.347682	0.641154	0.192554
	C1496	C	0.447343	0.701527	0.287338
	C1497	C	0.400944	0.695183	0.257425
	N1498	N	0.421994	0.710078	0.287246
	O1499	O	0.377789	0.698575	0.249615
	O1500	O	0.466646	0.707838	0.311404
	C1501	C	0.484411	0.649615	0.194119
	C1502	C	0.499107	0.678473	0.247825
	N1503	N	0.508735	0.663042	0.221001
	O1504	O	0.515428	0.692832	0.273193
	O1505	O	0.486657	0.635517	0.168129
	C1506	C	0.403953	0.758653	0.022272
	C1507	C	0.398444	0.733916	-0.002599
	O1508	O	0.367812	0.708215	-0.005719
	C1509	C	0.424548	0.736610	-0.024992
	C1510	C	0.455415	0.765705	-0.024282
	O1511	O	0.479997	0.770101	-0.047808
	C1512	C	0.461351	0.790467	0.000484
	C1513	C	0.435975	0.785654	0.025087
	O1514	O	0.442387	0.807359	0.051937
	H1515	H	0.495577	0.766154	-0.032732
	H1516	H	0.454777	0.801603	0.070007
	H1517	H	0.365295	0.691489	0.012931
	C1518	C	0.596530	0.686843	0.197589
	C1519	C	0.601841	0.666267	0.221757
	O1520	O	0.632040	0.668971	0.223688
	C1521	C	0.575962	0.643720	0.244866
	C1522	C	0.545264	0.643197	0.244571
	O1523	O	0.520643	0.623167	0.268077
	C1524	C	0.539453	0.663135	0.220281
	C1525	C	0.564676	0.683339	0.195454
	O1526	O	0.558177	0.699726	0.169058
	H1527	H	0.505704	0.603991	0.253099
	H1528	H	0.546959	0.682880	0.150137
	H1529	H	0.634045	0.656276	0.203152
	C1530	C	0.310548	0.910232	0.090833
	C1531	C	0.330401	0.935229	0.114737
	O1532	O	0.326225	0.961716	0.118122
	C1533	C	0.353849	0.932090	0.135864
	C1534	C	0.354336	0.902029	0.135784
	O1535	O	0.374239	0.897132	0.158629
	C1536	C	0.334671	0.876878	0.112224
	C1537	C	0.314759	0.882389	0.088005
	O1538	O	0.299198	0.860506	0.061648
	H1539	H	0.392427	0.898528	0.142455
	H1540	H	0.317219	0.864581	0.043642
	H1541	H	0.339107	0.977189	0.097758
	C1542	C	0.571924	0.886645	0.033899
	C1543	C	0.593395	0.916930	0.017583
	C1544	C	0.584562	0.926217	-0.014967
	C1545	C	0.555718	0.904131	-0.031746
	C1546	C	0.534872	0.873064	-0.016039
	C1547	C	0.542495	0.864645	0.017239
	C1548	C	0.624166	0.933013	0.039996
	C1549	C	0.586515	0.883833	0.068912
	N1550	N	0.618844	0.911210	0.069787
	O1551	O	0.573981	0.863176	0.092541
	O1552	O	0.649480	0.958331	0.034524
	C1553	C	0.553477	0.919660	-0.066619
	C1554	C	0.598874	0.958520	-0.035994
	N1555	N	0.578586	0.952937	-0.066676
	O1556	O	0.621845	0.984371	-0.028140
	O1557	O	0.534350	0.907398	-0.090767
	C1558	C	0.515557	0.830504	0.027715
	C1559	C	0.501822	0.845558	-0.027082
	N1560	N	0.492004	0.820304	-0.000110
	O1561	O	0.485851	0.844283	-0.052930
	O1562	O	0.512713	0.813724	0.053977
	C1563	C	0.352866	0.781629	0.079076
	C1564	C	0.343954	0.751074	0.094784
	C1565	C	0.324007	0.740859	0.126396
	C1566	C	0.315041	0.762099	0.142850
	C1567	C	0.325481	0.793555	0.127908
	C1568	C	0.343944	0.803080	0.095751
	C1569	C	0.360260	0.735605	0.072725
	C1570	C	0.372856	0.785723	0.045152
	N1571	N	0.378149	0.758249	0.043984
	O1572	O	0.382744	0.807508	0.022662
	O1573	O	0.360203	0.710048	0.077884
	C1574	C	0.295008	0.745252	0.176600
	C1575	C	0.306528	0.708262	0.146734
	N1576	N	0.289006	0.712332	0.176195
	O1577	O	0.305655	0.682800	0.139602
	O1578	O	0.285579	0.756431	0.200118
	C1579	C	0.350449	0.837092	0.085300
	C1580	C	0.319017	0.820997	0.138999
	N1581	N	0.335293	0.846678	0.112505
	O1582	O	0.303604	0.822407	0.164607
	O1583	O	0.365232	0.854314	0.059507
	C1584	C	0.426932	0.649072	0.522688
	C1585	C	0.405229	0.657640	0.539274
	C1586	C	0.414941	0.676506	0.570613
	C1587	C	0.444609	0.683562	0.586478
	C1588	C	0.465502	0.673096	0.570879
	C1589	C	0.457044	0.656523	0.538525
	C1590	C	0.373240	0.641652	0.518798
	C1591	C	0.411478	0.631352	0.488803
	N1592	N	0.378422	0.625173	0.489218
	O1593	O	0.423867	0.623495	0.464812
	O1594	O	0.347682	0.641154	0.525888
	C1595	C	0.447343	0.701527	0.620671
	C1596	C	0.400944	0.695183	0.590758
	N1597	N	0.421994	0.710078	0.620579
	O1598	O	0.377789	0.698575	0.582948
	O1599	O	0.466646	0.707838	0.644737
	C1600	C	0.484411	0.649615	0.527453
	C1601	C	0.499107	0.678473	0.581158
	N1602	N	0.508735	0.663042	0.554335
	O1603	O	0.515428	0.692832	0.606527
	O1604	O	0.486657	0.635517	0.501462
	C1605	C	0.403953	0.758653	0.355605
	C1606	C	0.398444	0.733916	0.330734
	O1607	O	0.367812	0.708215	0.327615
	C1608	C	0.424548	0.736610	0.308342
	C1609	C	0.455415	0.765705	0.309051
	O1610	O	0.479997	0.770101	0.285525
	C1611	C	0.461351	0.790467	0.333817
	C1612	C	0.435975	0.785654	0.358421
	O1613	O	0.442387	0.807359	0.385271
	H1614	H	0.495577	0.766154	0.300601
	H1615	H	0.454777	0.801603	0.403340
	H1616	H	0.365295	0.691489	0.346264
	C1617	C	0.596530	0.686843	0.530923
	C1618	C	0.601841	0.666267	0.555090
	O1619	O	0.632040	0.668971	0.557021
	C1620	C	0.575962	0.643720	0.578199
	C1621	C	0.545264	0.643197	0.577904
	O1622	O	0.520643	0.623167	0.601410
	C1623	C	0.539453	0.663135	0.553614
	C1624	C	0.564676	0.683339	0.528788
	O1625	O	0.558177	0.699726	0.502391
	H1626	H	0.505704	0.603991	0.586433
	H1627	H	0.546959	0.682880	0.483470
	H1628	H	0.634045	0.656276	0.536485
	C1629	C	0.310548	0.910232	0.424167
	C1630	C	0.330401	0.935229	0.448070
	O1631	O	0.326225	0.961716	0.451455
	C1632	C	0.353849	0.932090	0.469197
	C1633	C	0.354336	0.902029	0.469117
	O1634	O	0.374239	0.897132	0.491962
	C1635	C	0.334671	0.876878	0.445558
	C1636	C	0.314759	0.882389	0.421338
	O1637	O	0.299198	0.860506	0.394981
	H1638	H	0.392427	0.898528	0.475789
	H1639	H	0.317219	0.864581	0.376975
	H1640	H	0.339107	0.977189	0.431092
	C1641	C	0.571924	0.886645	0.367232
	C1642	C	0.593395	0.916930	0.350916
	C1643	C	0.584562	0.926217	0.318366
	C1644	C	0.555718	0.904131	0.301588
	C1645	C	0.534872	0.873064	0.317294
	C1646	C	0.542495	0.864645	0.350572
	C1647	C	0.624166	0.933013	0.373329
	C1648	C	0.586515	0.883833	0.402246
	N1649	N	0.618844	0.911210	0.403120
	O1650	O	0.573981	0.863176	0.425875
	O1651	O	0.649480	0.958331	0.367857
	C1652	C	0.553477	0.919660	0.266714
	C1653	C	0.598874	0.958520	0.297340
	N1654	N	0.578586	0.952937	0.266658
	O1655	O	0.621845	0.984371	0.305193
	O1656	O	0.534350	0.907398	0.242566
	C1657	C	0.515557	0.830504	0.361049
	C1658	C	0.501822	0.845558	0.306252
	N1659	N	0.492004	0.820304	0.333224
	O1660	O	0.485851	0.844283	0.280404
	O1661	O	0.512713	0.813724	0.387310
	C1662	C	0.352866	0.781629	0.412409
	C1663	C	0.343954	0.751074	0.428118
	C1664	C	0.324007	0.740859	0.459729
	C1665	C	0.315041	0.762099	0.476184
	C1666	C	0.325481	0.793555	0.461241
	C1667	C	0.343944	0.803080	0.429085
	C1668	C	0.360260	0.735605	0.406059
	C1669	C	0.372856	0.785723	0.378485
	N1670	N	0.378149	0.758249	0.377317
	O1671	O	0.382744	0.807508	0.355996
	O1672	O	0.360203	0.710048	0.411218
	C1673	C	0.295008	0.745252	0.509933
	C1674	C	0.306528	0.708262	0.480067
	N1675	N	0.289006	0.712332	0.509528
	O1676	O	0.305655	0.682800	0.472936
	O1677	O	0.285579	0.756431	0.533451
	C1678	C	0.350449	0.837092	0.418633
	C1679	C	0.319017	0.820997	0.472332
	N1680	N	0.335293	0.846678	0.445838
	O1681	O	0.303604	0.822407	0.497941
	O1682	O	0.365232	0.854314	0.392840
	C1683	C	0.426932	0.649072	0.856022
	C1684	C	0.405229	0.657640	0.872607
	C1685	C	0.414941	0.676506	0.903946
	C1686	C	0.444609	0.683562	0.919811
	C1687	C	0.465502	0.673096	0.904213
	C1688	C	0.457044	0.656523	0.871859
	C1689	C	0.373240	0.641652	0.852131
	C1690	C	0.411478	0.631352	0.822136
	N1691	N	0.378422	0.625173	0.822551
	O1692	O	0.423867	0.623495	0.798145
	O1693	O	0.347682	0.641154	0.859221
	C1694	C	0.447343	0.701527	0.954004
	C1695	C	0.400944	0.695183	0.924091
	N1696	N	0.421994	0.710078	0.953913
	O1697	O	0.377789	0.698575	0.916282
	O1698	O	0.466646	0.707838	0.978071
	C1699	C	0.484411	0.649615	0.860786
	C1700	C	0.499107	0.678473	0.914491
	N1701	N	0.508735	0.663042	0.887668
	O1702	O	0.515428	0.692832	0.939860
	O1703	O	0.486657	0.635517	0.834795
	C1704	C	0.403953	0.758653	0.688938
	C1705	C	0.398444	0.733916	0.664068
	O1706	O	0.367812	0.708215	0.660948
	C1707	C	0.424548	0.736610	0.641675
	C1708	C	0.455415	0.765705	0.642384
	O1709	O	0.479997	0.770101	0.618858
	C1710	C	0.461351	0.790467	0.667151
	C1711	C	0.435975	0.785654	0.691754
	O1712	O	0.442387	0.807359	0.718604
	H1713	H	0.495577	0.766154	0.633935
	H1714	H	0.454777	0.801603	0.736674
	H1715	H	0.365295	0.691489	0.679598
	C1716	C	0.596530	0.686843	0.864256
	C1717	C	0.601841	0.666267	0.888423
	O1718	O	0.632040	0.668971	0.890355
	C1719	C	0.575962	0.643720	0.911532
	C1720	C	0.545264	0.643197	0.911238
	O1721	O	0.520643	0.623167	0.934744
	C1722	C	0.539453	0.663135	0.886947
	C1723	C	0.564676	0.683339	0.862121
	O1724	O	0.558177	0.699726	0.835724
	H1725	H	0.505704	0.603991	0.919766
	H1726	H	0.546959	0.682880	0.816804
	H1727	H	0.634045	0.656276	0.869818
	C1728	C	0.310548	0.910232	0.757500
	C1729	C	0.330401	0.935229	0.781404
	O1730	O	0.326225	0.961716	0.784789
	C1731	C	0.353849	0.932090	0.802531
	C1732	C	0.354336	0.902029	0.802450
	O1733	O	0.374239	0.897132	0.825296
	C1734	C	0.334671	0.876878	0.778891
	C1735	C	0.314759	0.882389	0.754671
	O1736	O	0.299198	0.860506	0.728314
	H1737	H	0.392427	0.898528	0.809122
	H1738	H	0.317219	0.864581	0.710309
	H1739	H	0.339107	0.977189	0.764425
	C1740	C	0.571924	0.886645	0.700565
	C1741	C	0.593395	0.916930	0.684249
	C1742	C	0.584562	0.926217	0.651699
	C1743	C	0.555718	0.904131	0.634921
	C1744	C	0.534872	0.873064	0.650628
	C1745	C	0.542495	0.864645	0.683905
	C1746	C	0.624166	0.933013	0.706662
	C1747	C	0.586515	0.883833	0.735579
	N1748	N	0.618844	0.911210	0.736454
	O1749	O	0.573981	0.863176	0.759208
	O1750	O	0.649480	0.958331	0.701190
	C1751	C	0.553477	0.919660	0.600047
	C1752	C	0.598874	0.958520	0.630673
	N1753	N	0.578586	0.952937	0.599991
	O1754	O	0.621845	0.984371	0.638527
	O1755	O	0.534350	0.907398	0.575900
	C1756	C	0.515557	0.830504	0.694382
	C1757	C	0.501822	0.845558	0.639585
	N1758	N	0.492004	0.820304	0.666557
	O1759	O	0.485851	0.844283	0.613737
	O1760	O	0.512713	0.813724	0.720644
	C1761	C	0.352866	0.781629	0.745743
	C1762	C	0.343954	0.751074	0.761451
	C1763	C	0.324007	0.740859	0.793063
	C1764	C	0.315041	0.762099	0.809517
	C1765	C	0.325481	0.793555	0.794574
	C1766	C	0.343944	0.803080	0.762418
	C1767	C	0.360260	0.735605	0.739392
	C1768	C	0.372856	0.785723	0.711819
	N1769	N	0.378149	0.758249	0.710651
	O1770	O	0.382744	0.807508	0.689329
	O1771	O	0.360203	0.710048	0.744551
	C1772	C	0.295008	0.745252	0.843266
	C1773	C	0.306528	0.708262	0.813401
	N1774	N	0.289006	0.712332	0.842861
	O1775	O	0.305655	0.682800	0.806269
	O1776	O	0.285579	0.756431	0.866784
	C1777	C	0.350449	0.837092	0.751967
	C1778	C	0.319017	0.820997	0.805665
	N1779	N	0.335293	0.846678	0.779172
	O1780	O	0.303604	0.822407	0.831274
	O1781	O	0.365232	0.854314	0.726173
	C1782	C	0.760265	-0.017594	0.189355
	C1783	C	0.738563	-0.009027	0.205941
	C1784	C	0.748274	0.009840	0.237280
	C1785	C	0.777942	0.016896	0.253145
	C1786	C	0.798836	0.006429	0.237546
	C1787	C	0.790378	-0.010143	0.205192
	C1788	C	0.706574	-0.025015	0.185465
	C1789	C	0.744811	-0.035314	0.155470
	N1790	N	0.711755	-0.041493	0.155885
	O1791	O	0.757200	-0.043172	0.131479
	O1792	O	0.681015	-0.025513	0.192554
	C1793	C	0.780676	0.034860	0.287338
	C1794	C	0.734277	0.028516	0.257425
	N1795	N	0.755328	0.043411	0.287246
	O1796	O	0.711122	0.031908	0.249615
	O1797	O	0.799980	0.041171	0.311404
	C1798	C	0.817745	-0.017052	0.194119
	C1799	C	0.832440	0.011806	0.247825
	N1800	N	0.842068	-0.003624	0.221001
	O1801	O	0.848762	0.026165	0.273193
	O1802	O	0.819990	-0.031150	0.168129
	C1803	C	0.737287	0.091986	0.022272
	C1804	C	0.731777	0.067249	-0.002599
	O1805	O	0.701146	0.041548	-0.005719
	C1806	C	0.757881	0.069943	-0.024992
	C1807	C	0.788748	0.099038	-0.024282
	O1808	O	0.813330	0.103434	-0.047808
	C1809	C	0.794684	0.123800	0.000484
	C1810	C	0.769309	0.118988	0.025087
	O1811	O	0.775720	0.140692	0.051937
	H1812	H	0.828910	0.099487	-0.032732
	H1813	H	0.788111	0.134936	0.070007
	H1814	H	0.698629	0.024822	0.012931
	C1815	C	0.929863	0.020177	0.197589
	C1816	C	0.935174	-0.000399	0.221757
	O1817	O	0.965374	0.002305	0.223688
	C1818	C	0.909295	-0.022946	0.244866
	C1819	C	0.878597	-0.023469	0.244571
	O1820	O	0.853976	-0.043500	0.268077
	C1821	C	0.872786	-0.003531	0.220281
	C1822	C	0.898009	0.016673	0.195454
	O1823	O	0.891510	0.033060	0.169058
	H1824	H	0.839037	-0.062675	0.253099
	H1825	H	0.880292	0.016213	0.150137
	H1826	H	0.967379	-0.010391	0.203152
	C1827	C	0.643882	0.243566	0.090833
	C1828	C	0.663735	0.268563	0.114737
	O1829	O	0.659558	0.295049	0.118122
	C1830	C	0.687183	0.265423	0.135864
	C1831	C	0.687670	0.235362	0.135784
	O1832	O	0.707572	0.230465	0.158629
	C1833	C	0.668005	0.210212	0.112224
	C1834	C	0.648092	0.215722	0.088005
	O1835	O	0.632531	0.193839	0.061648
	H1836	H	0.725760	0.231862	0.142455
	H1837	H	0.650552	0.197914	0.043642
	H1838	H	0.672441	0.310522	0.097758
	C1839	C	0.905258	0.219978	0.033899
	C1840	C	0.926728	0.250263	0.017583
	C1841	C	0.917895	0.259550	-0.014967
	C1842	C	0.889052	0.237465	-0.031746
	C1843	C	0.868205	0.206398	-0.016039
	C1844	C	0.875828	0.197979	0.017239
	C1845	C	0.957499	0.266347	0.039996
	C1846	C	0.919849	0.217167	0.068912
	N1847	N	0.952177	0.244544	0.069787
	O1848	O	0.907314	0.196509	0.092541
	O1849	O	0.982813	0.291665	0.034524
	C1850	C	0.886810	0.252993	-0.066619
	C1851	C	0.932208	0.291853	-0.035994
	N1852	N	0.911919	0.286270	-0.066676
	O1853	O	0.955178	0.317704	-0.028140
	O1854	O	0.867684	0.240731	-0.090767
	C1855	C	0.848890	0.163838	0.027715
	C1856	C	0.835156	0.178892	-0.027082
	N1857	N	0.825337	0.153637	-0.000110
	O1858	O	0.819184	0.177616	-0.052930
	O1859	O	0.846046	0.147058	0.053977
	C1860	C	0.686199	0.114962	0.079076
	C1861	C	0.677287	0.084407	0.094784
	C1862	C	0.657340	0.074192	0.126396
	C1863	C	0.648374	0.095432	0.142850
	C1864	C	0.658814	0.126889	0.127908
	C1865	C	0.677278	0.136413	0.095751
	C1866	C	0.693593	0.068938	0.072725
	C1867	C	0.706189	0.119056	0.045152
	N1868	N	0.711482	0.091582	0.043984
	O1869	O	0.716077	0.140841	0.022662
	O1870	O	0.693536	0.043381	0.077884
	C1871	C	0.628341	0.078585	0.176600
	C1872	C	0.639861	0.041595	0.146734
	N1873	N	0.622340	0.045665	0.176195
	O1874	O	0.638989	0.016133	0.139602
	O1875	O	0.618912	0.089764	0.200118
	C1876	C	0.683782	0.170426	0.085300
	C1877	C	0.652351	0.154330	0.138999
	N1878	N	0.668626	0.180012	0.112505
	O1879	O	0.636937	0.155741	0.164607
	O1880	O	0.698565	0.187647	0.059507
	C1881	C	0.760265	-0.017594	0.522688
	C1882	C	0.738563	-0.009027	0.539274
	C1883	C	0.748274	0.009840	0.570613
	C1884	C	0.777942	0.016896	0.586478
	C1885	C	0.798836	0.006429	0.570879
	C1886	C	0.790378	-0.010143	0.538525
	C1887	C	0.706574	-0.025015	0.518798
	C1888	C	0.744811	-0.035314	0.488803
	N1889	N	0.711755	-0.041493	0.489218
	O1890	O	0.757200	-0.043172	0.464812
	O1891	O	0.681015	-0.025513	0.525888
	C1892	C	0.780676	0.034860	0.620671
	C1893	C	0.734277	0.028516	0.590758
	N1894	N	0.755328	0.043411	0.620579
	O1895	O	0.711122	0.031908	0.582948
	O1896	O	0.799980	0.041171	0.644737
	C1897	C	0.817745	-0.017052	0.527453
	C1898	C	0.832440	0.011806	0.581158
	N1899	N	0.842068	-0.003624	0.554335
	O1900	O	0.848762	0.026165	0.606527
	O1901	O	0.819990	-0.031150	0.501462
	C1902	C	0.737287	0.091986	0.355605
	C1903	C	0.731777	0.067249	0.330734
	O1904	O	0.701146	0.041548	0.327615
	C1905	C	0.757881	0.069943	0.308342
	C1906	C	0.788748	0.099038	0.309051
	O1907	O	0.813330	0.103434	0.285525
	C1908	C	0.794684	0.123800	0.333817
	C1909	C	0.769309	0.118988	0.358421
	O1910	O	0.775720	0.140692	0.385271
	H1911	H	0.828910	0.099487	0.300601
	H1912	H	0.788111	0.134936	0.403340
	H1913	H	0.698629	0.024822	0.346264
	C1914	C	0.929863	0.020177	0.530923
	C1915	C	0.935174	-0.000399	0.555090
	O1916	O	0.965374	0.002305	0.557021
	C1917	C	0.909295	-0.022946	0.578199
	C1918	C	0.878597	-0.023469	0.577904
	O1919	O	0.853976	-0.043500	0.601410
	C1920	C	0.872786	-0.003531	0.553614
	C1921	C	0.898009	0.016673	0.528788
	O1922	O	0.891510	0.033060	0.502391
	H1923	H	0.839037	-0.062675	0.586433
	H1924	H	0.880292	0.016213	0.483470
	H1925	H	0.967379	-0.010391	0.536485
	C1926	C	0.643882	0.243566	0.424167
	C1927	C	0.663735	0.268563	0.448070
	O1928	O	0.659558	0.295049	0.451455
	C1929	C	0.687183	0.265423	0.469197
	C1930	C	0.687670	0.235362	0.469117
	O1931	O	0.707572	0.230465	0.491962
	C1932	C	0.668005	0.210212	0.445558
	C1933	C	0.648092	0.215722	0.421338
	O1934	O	0.632531	0.193839	0.394981
	H1935	H	0.725760	0.231862	0.475789
	H1936	H	0.650552	0.197914	0.376975
	H1937	H	0.672441	0.310522	0.431092
	C1938	C	0.905258	0.219978	0.367232
	C1939	C	0.926728	0.250263	0.350916
	C1940	C	0.917895	0.259550	0.318366
	C1941	C	0.889052	0.237465	0.301588
	C1942	C	0.868205	0.206398	0.317294
	C1943	C	0.875828	0.197979	0.350572
	C1944	C	0.957499	0.266347	0.373329
	C1945	C	0.919849	0.217167	0.402246
	N1946	N	0.952177	0.244544	0.403120
	O1947	O	0.907314	0.196509	0.425875
	O1948	O	0.982813	0.291665	0.367857
	C1949	C	0.886810	0.252993	0.266714
	C1950	C	0.932208	0.291853	0.297340
	N1951	N	0.911919	0.286270	0.266658
	O1952	O	0.955178	0.317704	0.305193
	O1953	O	0.867684	0.240731	0.242566
	C1954	C	0.848890	0.163838	0.361049
	C1955	C	0.835156	0.178892	0.306252
	N1956	N	0.825337	0.153637	0.333224
	O1957	O	0.819184	0.177616	0.280404
	O1958	O	0.846046	0.147058	0.387310
	C1959	C	0.686199	0.114962	0.412409
	C1960	C	0.677287	0.084407	0.428118
	C1961	C	0.657340	0.074192	0.459729
	C1962	C	0.648374	0.095432	0.476184
	C1963	C	0.658814	0.126889	0.461241
	C1964	C	0.677278	0.136413	0.429085
	C1965	C	0.693593	0.068938	0.406059
	C1966	C	0.706189	0.119056	0.378485
	N1967	N	0.711482	0.091582	0.377317
	O1968	O	0.716077	0.140841	0.355996
	O1969	O	0.693536	0.043381	0.411218
	C1970	C	0.628341	0.078585	0.509933
	C1971	C	0.639861	0.041595	0.480067
	N1972	N	0.622340	0.045665	0.509528
	O1973	O	0.638989	0.016133	0.472936
	O1974	O	0.618912	0.089764	0.533451
	C1975	C	0.683782	0.170426	0.418633
	C1976	C	0.652351	0.154330	0.472332
	N1977	N	0.668626	0.180012	0.445838
	O1978	O	0.636937	0.155741	0.497941
	O1979	O	0.698565	0.187647	0.392840
	C1980	C	0.760265	-0.017594	0.856022
	C1981	C	0.738563	-0.009027	0.872607
	C1982	C	0.748274	0.009840	0.903946
	C1983	C	0.777942	0.016896	0.919811
	C1984	C	0.798836	0.006429	0.904213
	C1985	C	0.790378	-0.010143	0.871859
	C1986	C	0.706574	-0.025015	0.852131
	C1987	C	0.744811	-0.035314	0.822136
	N1988	N	0.711755	-0.041493	0.822551
	O1989	O	0.757200	-0.043172	0.798145
	O1990	O	0.681015	-0.025513	0.859221
	C1991	C	0.780676	0.034860	0.954004
	C1992	C	0.734277	0.028516	0.924091
	N1993	N	0.755328	0.043411	0.953913
	O1994	O	0.711122	0.031908	0.916282
	O1995	O	0.799980	0.041171	0.978071
	C1996	C	0.817745	-0.017052	0.860786
	C1997	C	0.832440	0.011806	0.914491
	N1998	N	0.842068	-0.003624	0.887668
	O1999	O	0.848762	0.026165	0.939860
	O2000	O	0.819990	-0.031150	0.834795
	C2001	C	0.737287	0.091986	0.688938
	C2002	C	0.731777	0.067249	0.664068
	O2003	O	0.701146	0.041548	0.660948
	C2004	C	0.757881	0.069943	0.641675
	C2005	C	0.788748	0.099038	0.642384
	O2006	O	0.813330	0.103434	0.618858
	C2007	C	0.794684	0.123800	0.667151
	C2008	C	0.769309	0.118988	0.691754
	O2009	O	0.775720	0.140692	0.718604
	H2010	H	0.828910	0.099487	0.633935
	H2011	H	0.788111	0.134936	0.736674
	H2012	H	0.698629	0.024822	0.679598
	C2013	C	0.929863	0.020177	0.864256
	C2014	C	0.935174	-0.000399	0.888423
	O2015	O	0.965374	0.002305	0.890355
	C2016	C	0.909295	-0.022946	0.911532
	C2017	C	0.878597	-0.023469	0.911238
	O2018	O	0.853976	-0.043500	0.934744
	C2019	C	0.872786	-0.003531	0.886947
	C2020	C	0.898009	0.016673	0.862121
	O2021	O	0.891510	0.033060	0.835724
	H2022	H	0.839037	-0.062675	0.919766
	H2023	H	0.880292	0.016213	0.816804
	H2024	H	0.967379	-0.010391	0.869818
	C2025	C	0.643882	0.243566	0.757500
	C2026	C	0.663735	0.268563	0.781404
	O2027	O	0.659558	0.295049	0.784789
	C2028	C	0.687183	0.265423	0.802531
	C2029	C	0.687670	0.235362	0.802450
	O2030	O	0.707572	0.230465	0.825296
	C2031	C	0.668005	0.210212	0.778891
	C2032	C	0.648092	0.215722	0.754671
	O2033	O	0.632531	0.193839	0.728314
	H2034	H	0.725760	0.231862	0.809122
	H2035	H	0.650552	0.197914	0.710309
	H2036	H	0.672441	0.310522	0.764425
	C2037	C	0.905258	0.219978	0.700565
	C2038	C	0.926728	0.250263	0.684249
	C2039	C	0.917895	0.259550	0.651699
	C2040	C	0.889052	0.237465	0.634921
	C2041	C	0.868205	0.206398	0.650628
	C2042	C	0.875828	0.197979	0.683905
	C2043	C	0.957499	0.266347	0.706662
	C2044	C	0.919849	0.217167	0.735579
	N2045	N	0.952177	0.244544	0.736454
	O2046	O	0.907314	0.196509	0.759208
	O2047	O	0.982813	0.291665	0.701190
	C2048	C	0.886810	0.252993	0.600047
	C2049	C	0.932208	0.291853	0.630673
	N2050	N	0.911919	0.286270	0.599991
	O2051	O	0.955178	0.317704	0.638527
	O2052	O	0.867684	0.240731	0.575900
	C2053	C	0.848890	0.163838	0.694382
	C2054	C	0.835156	0.178892	0.639585
	N2055	N	0.825337	0.153637	0.666557
	O2056	O	0.819184	0.177616	0.613737
	O2057	O	0.846046	0.147058	0.720644
	C2058	C	0.686199	0.114962	0.745743
	C2059	C	0.677287	0.084407	0.761451
	C2060	C	0.657340	0.074192	0.793063
	C2061	C	0.648374	0.095432	0.809517
	C2062	C	0.658814	0.126889	0.794574
	C2063	C	0.677278	0.136413	0.762418
	C2064	C	0.693593	0.068938	0.739392
	C2065	C	0.706189	0.119056	0.711819
	N2066	N	0.711482	0.091582	0.710651
	O2067	O	0.716077	0.140841	0.689329
	O2068	O	0.693536	0.043381	0.744551
	C2069	C	0.628341	0.078585	0.843266
	C2070	C	0.639861	0.041595	0.813401
	N2071	N	0.622340	0.045665	0.842861
	O2072	O	0.638989	0.016133	0.806269
	O2073	O	0.618912	0.089764	0.866784
	C2074	C	0.683782	0.170426	0.751967
	C2075	C	0.652351	0.154330	0.805665
	N2076	N	0.668626	0.180012	0.779172
	O2077	O	0.636937	0.155741	0.831274
	O2078	O	0.698565	0.187647	0.726173
	C2079	C	0.760265	0.315739	0.189355
	C2080	C	0.738563	0.324307	0.205941
	C2081	C	0.748274	0.343173	0.237280
	C2082	C	0.777942	0.350229	0.253145
	C2083	C	0.798836	0.339762	0.237546
	C2084	C	0.790378	0.323190	0.205192
	C2085	C	0.706574	0.308318	0.185465
	C2086	C	0.744811	0.298019	0.155470
	N2087	N	0.711755	0.291840	0.155885
	O2088	O	0.757200	0.290162	0.131479
	O2089	O	0.681015	0.307821	0.192554
	C2090	C	0.780676	0.368194	0.287338
	C2091	C	0.734277	0.361850	0.257425
	N2092	N	0.755328	0.376745	0.287246
	O2093	O	0.711122	0.365242	0.249615
	O2094	O	0.799980	0.374505	0.311404
	C2095	C	0.817745	0.316281	0.194119
	C2096	C	0.832440	0.345139	0.247825
	N2097	N	0.842068	0.329709	0.221001
	O2098	O	0.848762	0.359499	0.273193
	O2099	O	0.819990	0.302183	0.168129
	C2100	C	0.737287	0.425320	0.022272
	C2101	C	0.731777	0.400583	-0.002599
	O2102	O	0.701146	0.374882	-0.005719
	C2103	C	0.757881	0.403276	-0.024992
	C2104	C	0.788748	0.432372	-0.024282
	O2105	O	0.813330	0.436767	-0.047808
	C2106	C	0.794684	0.457134	0.000484
	C2107	C	0.769309	0.452321	0.025087
	O2108	O	0.775720	0.474026	0.051937
	H2109	H	0.828910	0.432820	-0.032732
	H2110	H	0.788111	0.468270	0.070007
	H2111	H	0.698629	0.358155	0.012931
	C2112	C	0.929863	0.353510	0.197589
	C2113	C	0.935174	0.332934	0.221757
	O2114	O	0.965374	0.335638	0.223688
	C2115	C	0.909295	0.310387	0.244866
	C2116	C	0.878597	0.309864	0.244571
	O2117	O	0.853976	0.289833	0.268077
	C2118	C	0.872786	0.329802	0.220281
	C2119	C	0.898009	0.350006	0.195454
	O2120	O	0.891510	0.366393	0.169058
	H2121	H	0.839037	0.270658	0.253099
	H2122	H	0.880292	0.349547	0.150137
	H2123	H	0.967379	0.322943	0.203152
	C2124	C	0.643882	0.576899	0.090833
	C2125	C	0.663735	0.601896	0.114737
	O2126	O	0.659558	0.628382	0.118122
	C2127	C	0.687183	0.598757	0.135864
	C2128	C	0.687670	0.568695	0.135784
	O2129	O	0.707572	0.563798	0.158629
	C2130	C	0.668005	0.543545	0.112224
	C2131	C	0.648092	0.549055	0.088005
	O2132	O	0.632531	0.527173	0.061648
	H2133	H	0.725760	0.565195	0.142455
	H2134	H	0.650552	0.531247	0.043642
	H2135	H	0.672441	0.643856	0.097758
	C2136	C	0.905258	0.553312	0.033899
	C2137	C	0.926728	0.583596	0.017583
	C2138	C	0.917895	0.592884	-0.014967
	C2139	C	0.889052	0.570798	-0.031746
	C2140	C	0.868205	0.539731	-0.016039
	C2141	C	0.875828	0.531312	0.017239
	C2142	C	0.957499	0.599680	0.039996
	C2143	C	0.919849	0.550500	0.068912
	N2144	N	0.952177	0.577877	0.069787
	O2145	O	0.907314	0.529843	0.092541
	O2146	O	0.982813	0.624998	0.034524
	C2147	C	0.886810	0.586327	-0.066619
	C2148	C	0.932208	0.625187	-0.035994
	N2149	N	0.911919	0.619603	-0.066676
	O2150	O	0.955178	0.651037	-0.028140
	O2151	O	0.867684	0.574064	-0.090767
	C2152	C	0.848890	0.497171	0.027715
	C2153	C	0.835156	0.512225	-0.027082
	N2154	N	0.825337	0.486971	-0.000110
	O2155	O	0.819184	0.510949	-0.052930
	O2156	O	0.846046	0.480391	0.053977
	C2157	C	0.686199	0.448296	0.079076
	C2158	C	0.677287	0.417741	0.094784
	C2159	C	0.657340	0.407526	0.126396
	C2160	C	0.648374	0.428766	0.142850
	C2161	C	0.658814	0.460222	0.127908
	C2162	C	0.677278	0.469746	0.095751
	C2163	C	0.693593	0.402271	0.072725
	C2164	C	0.706189	0.452389	0.045152
	N2165	N	0.711482	0.424915	0.043984
	O2166	O	0.716077	0.474174	0.022662
	O2167	O	0.693536	0.376714	0.077884
	C2168	C	0.628341	0.411919	0.176600
	C2169	C	0.639861	0.374929	0.146734
	N2170	N	0.622340	0.378998	0.176195
	O2171	O	0.638989	0.349466	0.139602
	O2172	O	0.618912	0.423098	0.200118
	C2173	C	0.683782	0.503759	0.085300
	C2174	C	0.652351	0.487664	0.138999
	N2175	N	0.668626	0.513345	0.112505
	O2176	O	0.636937	0.489074	0.164607
	O2177	O	0.698565	0.520980	0.059507
	C2178	C	0.760265	0.315739	0.522688
	C2179	C	0.738563	0.324307	0.539274
	C2180	C	0.748274	0.343173	0.570613
	C2181	C	0.777942	0.350229	0.586478
	C2182	C	0.798836	0.339762	0.570879
	C2183	C	0.790378	0.323190	0.538525
	C2184	C	0.706574	0.308318	0.518798
	C2185	C	0.744811	0.298019	0.488803
	N2186	N	0.711755	0.291840	0.489218
	O2187	O	0.757200	0.290162	0.464812
	O2188	O	0.681015	0.307821	0.525888
	C2189	C	0.780676	0.368194	0.620671
	C2190	C	0.734277	0.361850	0.590758
	N2191	N	0.755328	0.376745	0.620579
	O2192	O	0.711122	0.365242	0.582948
	O2193	O	0.799980	0.374505	0.644737
	C2194	C	0.817745	0.316281	0.527453
	C2195	C	0.832440	0.345139	0.581158
	N2196	N	0.842068	0.329709	0.554335
	O2197	O	0.848762	0.359499	0.606527
	O2198	O	0.819990	0.302183	0.501462
	C2199	C	0.737287	0.425320	0.355605
	C2200	C	0.731777	0.400583	0.330734
	O2201	O	0.701146	0.374882	0.327615
	C2202	C	0.757881	0.403276	0.308342
	C2203	C	0.788748	0.432372	0.309051
	O2204	O	0.813330	0.436767	0.285525
	C2205	C	0.794684	0.457134	0.333817
	C2206	C	0.769309	0.452321	0.358421
	O2207	O	0.775720	0.474026	0.385271
	H2208	H	0.828910	0.432820	0.300601
	H2209	H	0.788111	0.468270	0.403340
	H2210	H	0.698629	0.358155	0.346264
	C2211	C	0.929863	0.353510	0.530923
	C2212	C	0.935174	0.332934	0.555090
	O2213	O	0.965374	0.335638	0.557021
	C2214	C	0.909295	0.310387	0.578199
	C2215	C	0.878597	0.309864	0.577904
	O2216	O	0.853976	0.289833	0.601410
	C2217	C	0.872786	0.329802	0.553614
	C2218	C	0.898009	0.350006	0.528788
	O2219	O	0.891510	0.366393	0.502391
	H2220	H	0.839037	0.270658	0.586433
	H2221	H	0.880292	0.349547	0.483470
	H2222	H	0.967379	0.322943	0.536485
	C2223	C	0.643882	0.576899	0.424167
	C2224	C	0.663735	0.601896	0.448070
	O2225	O	0.659558	0.628382	0.451455
	C2226	C	0.687183	0.598757	0.469197
	C2227	C	0.687670	0.568695	0.469117
	O2228	O	0.707572	0.563798	0.491962
	C2229	C	0.668005	0.543545	0.445558
	C2230	C	0.648092	0.549055	0.421338
	O2231	O	0.632531	0.527173	0.394981
	H2232	H	0.725760	0.565195	0.475789
	H2233	H	0.650552	0.531247	0.376975
	H2234	H	0.672441	0.643856	0.431092
	C2235	C	0.905258	0.553312	0.367232
	C2236	C	0.926728	0.583596	0.350916
	C2237	C	0.917895	0.592884	0.318366
	C2238	C	0.889052	0.570798	0.301588
	C2239	C	0.868205	0.539731	0.317294
	C2240	C	0.875828	0.531312	0.350572
	C2241	C	0.957499	0.599680	0.373329
	C2242	C	0.919849	0.550500	0.402246
	N2243	N	0.952177	0.577877	0.403120
	O2244	O	0.907314	0.529843	0.425875
	O2245	O	0.982813	0.624998	0.367857
	C2246	C	0.886810	0.586327	0.266714
	C2247	C	0.932208	0.625187	0.297340
	N2248	N	0.911919	0.619603	0.266658
	O2249	O	0.955178	0.651037	0.305193
	O2250	O	0.867684	0.574064	0.242566
	C2251	C	0.848890	0.497171	0.361049
	C2252	C	0.835156	0.512225	0.306252
	N2253	N	0.825337	0.486971	0.333224
	O2254	O	0.819184	0.510949	0.280404
	O2255	O	0.846046	0.480391	0.387310
	C2256	C	0.686199	0.448296	0.412409
	C2257	C	0.677287	0.417741	0.428118
	C2258	C	0.657340	0.407526	0.459729
	C2259	C	0.648374	0.428766	0.476184
	C2260	C	0.658814	0.460222	0.461241
	C2261	C	0.677278	0.469746	0.429085
	C2262	C	0.693593	0.402271	0.406059
	C2263	C	0.706189	0.452389	0.378485
	N2264	N	0.711482	0.424915	0.377317
	O2265	O	0.716077	0.474174	0.355996
	O2266	O	0.693536	0.376714	0.411218
	C2267	C	0.628341	0.411919	0.509933
	C2268	C	0.639861	0.374929	0.480067
	N2269	N	0.622340	0.378998	0.509528
	O2270	O	0.638989	0.349466	0.472936
	O2271	O	0.618912	0.423098	0.533451
	C2272	C	0.683782	0.503759	0.418633
	C2273	C	0.652351	0.487664	0.472332
	N2274	N	0.668626	0.513345	0.445838
	O2275	O	0.636937	0.489074	0.497941
	O2276	O	0.698565	0.520980	0.392840
	C2277	C	0.760265	0.315739	0.856022
	C2278	C	0.738563	0.324307	0.872607
	C2279	C	0.748274	0.343173	0.903946
	C2280	C	0.777942	0.350229	0.919811
	C2281	C	0.798836	0.339762	0.904213
	C2282	C	0.790378	0.323190	0.871859
	C2283	C	0.706574	0.308318	0.852131
	C2284	C	0.744811	0.298019	0.822136
	N2285	N	0.711755	0.291840	0.822551
	O2286	O	0.757200	0.290162	0.798145
	O2287	O	0.681015	0.307821	0.859221
	C2288	C	0.780676	0.368194	0.954004
	C2289	C	0.734277	0.361850	0.924091
	N2290	N	0.755328	0.376745	0.953913
	O2291	O	0.711122	0.365242	0.916282
	O2292	O	0.799980	0.374505	0.978071
	C2293	C	0.817745	0.316281	0.860786
	C2294	C	0.832440	0.345139	0.914491
	N2295	N	0.842068	0.329709	0.887668
	O2296	O	0.848762	0.359499	0.939860
	O2297	O	0.819990	0.302183	0.834795
	C2298	C	0.737287	0.425320	0.688938
	C2299	C	0.731777	0.400583	0.664068
	O2300	O	0.701146	0.374882	0.660948
	C2301	C	0.757881	0.403276	0.641675
	C2302	C	0.788748	0.432372	0.642384
	O2303	O	0.813330	0.436767	0.618858
	C2304	C	0.794684	0.457134	0.667151
	C2305	C	0.769309	0.452321	0.691754
	O2306	O	0.775720	0.474026	0.718604
	H2307	H	0.828910	0.432820	0.633935
	H2308	H	0.788111	0.468270	0.736674
	H2309	H	0.698629	0.358155	0.679598
	C2310	C	0.929863	0.353510	0.864256
	C2311	C	0.935174	0.332934	0.888423
	O2312	O	0.965374	0.335638	0.890355
	C2313	C	0.909295	0.310387	0.911532
	C2314	C	0.878597	0.309864	0.911238
	O2315	O	0.853976	0.289833	0.934744
	C2316	C	0.872786	0.329802	0.886947
	C2317	C	0.898009	0.350006	0.862121
	O2318	O	0.891510	0.366393	0.835724
	H2319	H	0.839037	0.270658	0.919766
	H2320	H	0.880292	0.349547	0.816804
	H2321	H	0.967379	0.322943	0.869818
	C2322	C	0.643882	0.576899	0.757500
	C2323	C	0.663735	0.601896	0.781404
	O2324	O	0.659558	0.628382	0.784789
	C2325	C	0.687183	0.598757	0.802531
	C2326	C	0.687670	0.568695	0.802450
	O2327	O	0.707572	0.563798	0.825296
	C2328	C	0.668005	0.543545	0.778891
	C2329	C	0.648092	0.549055	0.754671
	O2330	O	0.632531	0.527173	0.728314
	H2331	H	0.725760	0.565195	0.809122
	H2332	H	0.650552	0.531247	0.710309
	H2333	H	0.672441	0.643856	0.764425
	C2334	C	0.905258	0.553312	0.700565
	C2335	C	0.926728	0.583596	0.684249
	C2336	C	0.917895	0.592884	0.651699
	C2337	C	0.889052	0.570798	0.634921
	C2338	C	0.868205	0.539731	0.650628
	C2339	C	0.875828	0.531312	0.683905
	C2340	C	0.957499	0.599680	0.706662
	C2341	C	0.919849	0.550500	0.735579
	N2342	N	0.952177	0.577877	0.736454
	O2343	O	0.907314	0.529843	0.759208
	O2344	O	0.982813	0.624998	0.701190
	C2345	C	0.886810	0.586327	0.600047
	C2346	C	0.932208	0.625187	0.630673
	N2347	N	0.911919	0.619603	0.599991
	O2348	O	0.955178	0.651037	0.638527
	O2349	O	0.867684	0.574064	0.575900
	C2350	C	0.848890	0.497171	0.694382
	C2351	C	0.835156	0.512225	0.639585
	N2352	N	0.825337	0.486971	0.666557
	O2353	O	0.819184	0.510949	0.613737
	O2354	O	0.846046	0.480391	0.720644
	C2355	C	0.686199	0.448296	0.745743
	C2356	C	0.677287	0.417741	0.761451
	C2357	C	0.657340	0.407526	0.793063
	C2358	C	0.648374	0.428766	0.809517
	C2359	C	0.658814	0.460222	0.794574
	C2360	C	0.677278	0.469746	0.762418
	C2361	C	0.693593	0.402271	0.739392
	C2362	C	0.706189	0.452389	0.711819
	N2363	N	0.711482	0.424915	0.710651
	O2364	O	0.716077	0.474174	0.689329
	O2365	O	0.693536	0.376714	0.744551
	C2366	C	0.628341	0.411919	0.843266
	C2367	C	0.639861	0.374929	0.813401
	N2368	N	0.622340	0.378998	0.842861
	O2369	O	0.638989	0.349466	0.806269
	O2370	O	0.618912	0.423098	0.866784
	C2371	C	0.683782	0.503759	0.751967
	C2372	C	0.652351	0.487664	0.805665
	N2373	N	0.668626	0.513345	0.779172
	O2374	O	0.636937	0.489074	0.831274
	O2375	O	0.698565	0.520980	0.726173
	C2376	C	0.760265	0.649072	0.189355
	C2377	C	0.738563	0.657640	0.205941
	C2378	C	0.748274	0.676506	0.237280
	C2379	C	0.777942	0.683562	0.253145
	C2380	C	0.798836	0.673096	0.237546
	C2381	C	0.790378	0.656523	0.205192
	C2382	C	0.706574	0.641652	0.185465
	C2383	C	0.744811	0.631352	0.155470
	N2384	N	0.711755	0.625173	0.155885
	O2385	O	0.757200	0.623495	0.131479
	O2386	O	0.681015	0.641154	0.192554
	C2387	C	0.780676	0.701527	0.287338
	C2388	C	0.734277	0.695183	0.257425
	N2389	N	0.755328	0.710078	0.287246
	O2390	O	0.711122	0.698575	0.249615
	O2391	O	0.799980	0.707838	0.311404
	C2392	C	0.817745	0.649615	0.194119
	C2393	C	0.832440	0.678473	0.247825
	N2394	N	0.842068	0.663042	0.221001
	O2395	O	0.848762	0.692832	0.273193
	O2396	O	0.819990	0.635517	0.168129
	C2397	C	0.737287	0.758653	0.022272
	C2398	C	0.731777	0.733916	-0.002599
	O2399	O	0.701146	0.708215	-0.005719
	C2400	C	0.757881	0.736610	-0.024992
	C2401	C	0.788748	0.765705	-0.024282
	O2402	O	0.813330	0.770101	-0.047808
	C2403	C	0.794684	0.790467	0.000484
	C2404	C	0.769309	0.785654	0.025087
	O2405	O	0.775720	0.807359	0.051937
	H2406	H	0.828910	0.766154	-0.032732
	H2407	H	0.788111	0.801603	0.070007
	H2408	H	0.698629	0.691489	0.012931
	C2409	C	0.929863	0.686843	0.197589
	C2410	C	0.935174	0.666267	0.221757
	O2411	O	0.965374	0.668971	0.223688
	C2412	C	0.909295	0.643720	0.244866
	C2413	C	0.878597	0.643197	0.244571
	O2414	O	0.853976	0.623167	0.268077
	C2415	C	0.872786	0.663135	0.220281
	C2416	C	0.898009	0.683339	0.195454
	O2417	O	0.891510	0.699726	0.169058
	H2418	H	0.839037	0.603991	0.253099
	H2419	H	0.880292	0.682880	0.150137
	H2420	H	0.967379	0.656276	0.203152
	C2421	C	0.643882	0.910232	0.090833
	C2422	C	0.663735	0.935229	0.114737
	O2423	O	0.659558	0.961716	0.118122
	C2424	C	0.687183	0.932090	0.135864
	C2425	C	0.687670	0.902029	0.135784
	O2426	O	0.707572	0.897132	0.158629
	C2427	C	0.668005	0.876878	0.112224
	C2428	C	0.648092	0.882389	0.088005
	O2429	O	0.632531	0.860506	0.061648
	H2430	H	0.725760	0.898528	0.142455
	H2431	H	0.650552	0.864581	0.043642
	H2432	H	0.672441	0.977189	0.097758
	C2433	C	0.905258	0.886645	0.033899
	C2434	C	0.926728	0.916930	0.017583
	C2435	C	0.917895	0.926217	-0.014967
	C2436	C	0.889052	0.904131	-0.031746
	C2437	C	0.868205	0.873064	-0.016039
	C2438	C	0.875828	0.864645	0.017239
	C2439	C	0.957499	0.933013	0.039996
	C2440	C	0.919849	0.883833	0.068912
	N2441	N	0.952177	0.911210	0.069787
	O2442	O	0.907314	0.863176	0.092541
	O2443	O	0.982813	0.958331	0.034524
	C2444	C	0.886810	0.919660	-0.066619
	C2445	C	0.932208	0.958520	-0.035994
	N2446	N	0.911919	0.952937	-0.066676
	O2447	O	0.955178	0.984371	-0.028140
	O2448	O	0.867684	0.907398	-0.090767
	C2449	C	0.848890	0.830504	0.027715
	C2450	C	0.835156	0.845558	-0.027082
	N2451	N	0.825337	0.820304	-0.000110
	O2452	O	0.819184	0.844283	-0.052930
	O2453	O	0.846046	0.813724	0.053977
	C2454	C	0.686199	0.781629	0.079076
	C2455	C	0.677287	0.751074	0.094784
	C2456	C	0.657340	0.740859	0.126396
	C2457	C	0.648374	0.762099	0.142850
	C2458	C	0.658814	0.793555	0.127908
	C2459	C	0.677278	0.803080	0.095751
	C2460	C	0.693593	0.735605	0.072725
	C2461	C	0.706189	0.785723	0.045152
	N2462	N	0.711482	0.758249	0.043984
	O2463	O	0.716077	0.807508	0.022662
	O2464	O	0.693536	0.710048	0.077884
	C2465	C	0.628341	0.745252	0.176600
	C2466	C	0.639861	0.708262	0.146734
	N2467	N	0.622340	0.712332	0.176195
	O2468	O	0.638989	0.682800	0.139602
	O2469	O	0.618912	0.756431	0.200118
	C2470	C	0.683782	0.837092	0.085300
	C2471	C	0.652351	0.820997	0.138999
	N2472	N	0.668626	0.846678	0.112505
	O2473	O	0.636937	0.822407	0.164607
	O2474	O	0.698565	0.854314	0.059507
	C2475	C	0.760265	0.649072	0.522688
	C2476	C	0.738563	0.657640	0.539274
	C2477	C	0.748274	0.676506	0.570613
	C2478	C	0.777942	0.683562	0.586478
	C2479	C	0.798836	0.673096	0.570879
	C2480	C	0.790378	0.656523	0.538525
	C2481	C	0.706574	0.641652	0.518798
	C2482	C	0.744811	0.631352	0.488803
	N2483	N	0.711755	0.625173	0.489218
	O2484	O	0.757200	0.623495	0.464812
	O2485	O	0.681015	0.641154	0.525888
	C2486	C	0.780676	0.701527	0.620671
	C2487	C	0.734277	0.695183	0.590758
	N2488	N	0.755328	0.710078	0.620579
	O2489	O	0.711122	0.698575	0.582948
	O2490	O	0.799980	0.707838	0.644737
	C2491	C	0.817745	0.649615	0.527453
	C2492	C	0.832440	0.678473	0.581158
	N2493	N	0.842068	0.663042	0.554335
	O2494	O	0.848762	0.692832	0.606527
	O2495	O	0.819990	0.635517	0.501462
	C2496	C	0.737287	0.758653	0.355605
	C2497	C	0.731777	0.733916	0.330734
	O2498	O	0.701146	0.708215	0.327615
	C2499	C	0.757881	0.736610	0.308342
	C2500	C	0.788748	0.765705	0.309051
	O2501	O	0.813330	0.770101	0.285525
	C2502	C	0.794684	0.790467	0.333817
	C2503	C	0.769309	0.785654	0.358421
	O2504	O	0.775720	0.807359	0.385271
	H2505	H	0.828910	0.766154	0.300601
	H2506	H	0.788111	0.801603	0.403340
	H2507	H	0.698629	0.691489	0.346264
	C2508	C	0.929863	0.686843	0.530923
	C2509	C	0.935174	0.666267	0.555090
	O2510	O	0.965374	0.668971	0.557021
	C2511	C	0.909295	0.643720	0.578199
	C2512	C	0.878597	0.643197	0.577904
	O2513	O	0.853976	0.623167	0.601410
	C2514	C	0.872786	0.663135	0.553614
	C2515	C	0.898009	0.683339	0.528788
	O2516	O	0.891510	0.699726	0.502391
	H2517	H	0.839037	0.603991	0.586433
	H2518	H	0.880292	0.682880	0.483470
	H2519	H	0.967379	0.656276	0.536485
	C2520	C	0.643882	0.910232	0.424167
	C2521	C	0.663735	0.935229	0.448070
	O2522	O	0.659558	0.961716	0.451455
	C2523	C	0.687183	0.932090	0.469197
	C2524	C	0.687670	0.902029	0.469117
	O2525	O	0.707572	0.897132	0.491962
	C2526	C	0.668005	0.876878	0.445558
	C2527	C	0.648092	0.882389	0.421338
	O2528	O	0.632531	0.860506	0.394981
	H2529	H	0.725760	0.898528	0.475789
	H2530	H	0.650552	0.864581	0.376975
	H2531	H	0.672441	0.977189	0.431092
	C2532	C	0.905258	0.886645	0.367232
	C2533	C	0.926728	0.916930	0.350916
	C2534	C	0.917895	0.926217	0.318366
	C2535	C	0.889052	0.904131	0.301588
	C2536	C	0.868205	0.873064	0.317294
	C2537	C	0.875828	0.864645	0.350572
	C2538	C	0.957499	0.933013	0.373329
	C2539	C	0.919849	0.883833	0.402246
	N2540	N	0.952177	0.911210	0.403120
	O2541	O	0.907314	0.863176	0.425875
	O2542	O	0.982813	0.958331	0.367857
	C2543	C	0.886810	0.919660	0.266714
	C2544	C	0.932208	0.958520	0.297340
	N2545	N	0.911919	0.952937	0.266658
	O2546	O	0.955178	0.984371	0.305193
	O2547	O	0.867684	0.907398	0.242566
	C2548	C	0.848890	0.830504	0.361049
	C2549	C	0.835156	0.845558	0.306252
	N2550	N	0.825337	0.820304	0.333224
	O2551	O	0.819184	0.844283	0.280404
	O2552	O	0.846046	0.813724	0.387310
	C2553	C	0.686199	0.781629	0.412409
	C2554	C	0.677287	0.751074	0.428118
	C2555	C	0.657340	0.740859	0.459729
	C2556	C	0.648374	0.762099	0.476184
	C2557	C	0.658814	0.793555	0.461241
	C2558	C	0.677278	0.803080	0.429085
	C2559	C	0.693593	0.735605	0.406059
	C2560	C	0.706189	0.785723	0.378485
	N2561	N	0.711482	0.758249	0.377317
	O2562	O	0.716077	0.807508	0.355996
	O2563	O	0.693536	0.710048	0.411218
	C2564	C	0.628341	0.745252	0.509933
	C2565	C	0.639861	0.708262	0.480067
	N2566	N	0.622340	0.712332	0.509528
	O2567	O	0.638989	0.682800	0.472936
	O2568	O	0.618912	0.756431	0.533451
	C2569	C	0.683782	0.837092	0.418633
	C2570	C	0.652351	0.820997	0.472332
	N2571	N	0.668626	0.846678	0.445838
	O2572	O	0.636937	0.822407	0.497941
	O2573	O	0.698565	0.854314	0.392840
	C2574	C	0.760265	0.649072	0.856022
	C2575	C	0.738563	0.657640	0.872607
	C2576	C	0.748274	0.676506	0.903946
	C2577	C	0.777942	0.683562	0.919811
	C2578	C	0.798836	0.673096	0.904213
	C2579	C	0.790378	0.656523	0.871859
	C2580	C	0.706574	0.641652	0.852131
	C2581	C	0.744811	0.631352	0.822136
	N2582	N	0.711755	0.625173	0.822551
	O2583	O	0.757200	0.623495	0.798145
	O2584	O	0.681015	0.641154	0.859221
	C2585	C	0.780676	0.701527	0.954004
	C2586	C	0.734277	0.695183	0.924091
	N2587	N	0.755328	0.710078	0.953913
	O2588	O	0.711122	0.698575	0.916282
	O2589	O	0.799980	0.707838	0.978071
	C2590	C	0.817745	0.649615	0.860786
	C2591	C	0.832440	0.678473	0.914491
	N2592	N	0.842068	0.663042	0.887668
	O2593	O	0.848762	0.692832	0.939860
	O2594	O	0.819990	0.635517	0.834795
	C2595	C	0.737287	0.758653	0.688938
	C2596	C	0.731777	0.733916	0.664068
	O2597	O	0.701146	0.708215	0.660948
	C2598	C	0.757881	0.736610	0.641675
	C2599	C	0.788748	0.765705	0.642384
	O2600	O	0.813330	0.770101	0.618858
	C2601	C	0.794684	0.790467	0.667151
	C2602	C	0.769309	0.785654	0.691754
	O2603	O	0.775720	0.807359	0.718604
	H2604	H	0.828910	0.766154	0.633935
	H2605	H	0.788111	0.801603	0.736674
	H2606	H	0.698629	0.691489	0.679598
	C2607	C	0.929863	0.686843	0.864256
	C2608	C	0.935174	0.666267	0.888423
	O2609	O	0.965374	0.668971	0.890355
	C2610	C	0.909295	0.643720	0.911532
	C2611	C	0.878597	0.643197	0.911238
	O2612	O	0.853976	0.623167	0.934744
	C2613	C	0.872786	0.663135	0.886947
	C2614	C	0.898009	0.683339	0.862121
	O2615	O	0.891510	0.699726	0.835724
	H2616	H	0.839037	0.603991	0.919766
	H2617	H	0.880292	0.682880	0.816804
	H2618	H	0.967379	0.656276	0.869818
	C2619	C	0.643882	0.910232	0.757500
	C2620	C	0.663735	0.935229	0.781404
	O2621	O	0.659558	0.961716	0.784789
	C2622	C	0.687183	0.932090	0.802531
	C2623	C	0.687670	0.902029	0.802450
	O2624	O	0.707572	0.897132	0.825296
	C2625	C	0.668005	0.876878	0.778891
	C2626	C	0.648092	0.882389	0.754671
	O2627	O	0.632531	0.860506	0.728314
	H2628	H	0.725760	0.898528	0.809122
	H2629	H	0.650552	0.864581	0.710309
	H2630	H	0.672441	0.977189	0.764425
	C2631	C	0.905258	0.886645	0.700565
	C2632	C	0.926728	0.916930	0.684249
	C2633	C	0.917895	0.926217	0.651699
	C2634	C	0.889052	0.904131	0.634921
	C2635	C	0.868205	0.873064	0.650628
	C2636	C	0.875828	0.864645	0.683905
	C2637	C	0.957499	0.933013	0.706662
	C2638	C	0.919849	0.883833	0.735579
	N2639	N	0.952177	0.911210	0.736454
	O2640	O	0.907314	0.863176	0.759208
	O2641	O	0.982813	0.958331	0.701190
	C2642	C	0.886810	0.919660	0.600047
	C2643	C	0.932208	0.958520	0.630673
	N2644	N	0.911919	0.952937	0.599991
	O2645	O	0.955178	0.984371	0.638527
	O2646	O	0.867684	0.907398	0.575900
	C2647	C	0.848890	0.830504	0.694382
	C2648	C	0.835156	0.845558	0.639585
	N2649	N	0.825337	0.820304	0.666557
	O2650	O	0.819184	0.844283	0.613737
	O2651	O	0.846046	0.813724	0.720644
	C2652	C	0.686199	0.781629	0.745743
	C2653	C	0.677287	0.751074	0.761451
	C2654	C	0.657340	0.740859	0.793063
	C2655	C	0.648374	0.762099	0.809517
	C2656	C	0.658814	0.793555	0.794574
	C2657	C	0.677278	0.803080	0.762418
	C2658	C	0.693593	0.735605	0.739392
	C2659	C	0.706189	0.785723	0.711819
	N2660	N	0.711482	0.758249	0.710651
	O2661	O	0.716077	0.807508	0.689329
	O2662	O	0.693536	0.710048	0.744551
	C2663	C	0.628341	0.745252	0.843266
	C2664	C	0.639861	0.708262	0.813401
	N2665	N	0.622340	0.712332	0.842861
	O2666	O	0.638989	0.682800	0.806269
	O2667	O	0.618912	0.756431	0.866784
	C2668	C	0.683782	0.837092	0.751967
	C2669	C	0.652351	0.820997	0.805665
	N2670	N	0.668626	0.846678	0.779172
	O2671	O	0.636937	0.822407	0.831274
	O2672	O	0.698565	0.854314	0.726173
	N2673	N	0.234605	0.109150	0.458087
	N2674	N	0.224932	0.122841	0.473270
	N2675	N	0.972219	0.193489	0.894637
	N2676	N	0.945185	0.181106	0.897841
	N2677	N	0.256543	0.388236	0.653398
	N2678	N	0.266108	0.407965	0.632593
	N2679	N	0.108026	0.726077	0.068173
	N2680	N	0.110418	0.737734	0.094437
	N2681	N	0.511377	0.399510	0.136046
	N2682	N	0.529642	0.424782	0.127898
	N2683	N	0.867827	0.953567	0.351048
	N2684	N	0.885220	0.980049	0.348549
	N2685	N	0.788645	0.631612	0.665892
	N2686	N	0.806153	0.622197	0.663909
	N2687	N	0.790674	0.734492	0.742212
	N2688	N	0.811474	0.730561	0.734798
	N2689	N	0.370085	0.306125	0.319162
	N2690	N	0.381919	0.292101	0.328831
	N2691	N	0.607835	0.232862	0.892844
	N2692	N	0.630891	0.247306	0.907348
	N2693	N	0.241463	0.453840	0.755602
	N2694	N	0.245544	0.433017	0.761849
	N2695	N	0.363293	0.551503	0.595954
	N2696	N	0.355631	0.554447	0.568766
	N2697	N	0.080732	0.424925	0.516346
	N2698	N	0.094551	0.435829	0.540954
	C2699	C	0.051498	0.935230	0.652067
	O2700	O	0.032676	0.911637	0.668092
	O2701	O	0.070333	0.958847	0.636042
	C2702	C	0.910950	0.461209	0.533512
	O2703	O	0.919040	0.476113	0.559993
	O2704	O	0.902870	0.446281	0.507030
	C2705	C	0.556158	0.086224	0.352732
	O2706	O	0.545724	0.103289	0.343661
	O2707	O	0.566581	0.069135	0.361777
	C2708	C	0.807877	0.307802	0.016323
	O2709	O	0.823609	0.331063	0.033190
	O2710	O	0.792144	0.284540	-0.000516
	C2711	C	0.516568	0.165876	0.147182
	O2712	O	0.497236	0.140519	0.136209
	O2713	O	0.535900	0.191233	0.158155
	C2714	C	0.789896	0.884971	0.772822
	O2715	O	0.818050	0.896566	0.766168
	O2716	O	0.761765	0.873377	0.779449
	C2717	C	0.888019	0.611173	0.136508
	O2718	O	0.896530	0.627353	0.162039
	O2719	O	0.879498	0.594969	0.110950
	C2720	C	0.227781	0.424375	0.907266
	O2721	O	0.210525	0.412158	0.883039
	O2722	O	0.245023	0.436568	0.931520
	C2723	C	0.043781	0.621202	0.006899
	O2724	O	0.043657	0.626123	-0.024064
	O2725	O	0.043927	0.616281	0.037862
	C2726	C	0.280857	0.895165	0.880404
	O2727	O	0.274594	0.908956	0.902486
	O2728	O	0.287098	0.881376	0.858296
	C2729	C	0.565997	0.621834	0.452139
	O2730	O	0.556841	0.629889	0.477507
	O2731	O	0.575155	0.613779	0.426744
	C2732	C	0.756327	0.956714	0.368648
	O2733	O	0.781626	0.957490	0.364601
	O2734	O	0.731015	0.955914	0.372695
	C2735	C	0.894360	0.960131	0.105545
	O2736	O	0.884215	0.971706	0.126377
	O2737	O	0.904506	0.948555	0.084713
	C2738	C	0.785164	0.116303	0.836595
	O2739	O	0.787609	0.116234	0.805170
	O2740	O	0.782720	0.116373	0.867992
	C2741	C	0.424357	0.044557	0.447142
	O2742	O	0.413765	0.022875	0.468273
	O2743	O	0.434915	0.066214	0.425984
	C2744	C	0.233557	0.918945	0.499751
	O2745	O	0.230434	0.892703	0.502549
	O2746	O	0.236659	0.945187	0.496927
	C2747	C	0.991081	0.411715	0.953520
	O2748	O	1.010929	0.417396	0.930814
	O2749	O	0.971246	0.406059	0.976199
	C2750	C	0.889306	0.954619	0.767363
	O2751	O	0.892114	0.935945	0.749084
	O2752	O	0.886507	0.973269	0.785642
	C2753	C	0.343795	0.147129	0.230537
	O2754	O	0.351071	0.139303	0.203649
	O2755	O	0.336531	0.154979	0.257426
	C2756	C	0.743828	0.532489	0.970278
	O2757	O	0.718754	0.531564	0.976715
	O2758	O	0.768902	0.533414	0.963868
	C2759	C	0.892363	0.890959	0.171844
	O2760	O	0.912777	0.896423	0.192866
	O2761	O	0.871949	0.885496	0.150822
	C2762	C	0.019036	0.187805	0.236920
	O2763	O	-0.001104	0.191272	0.252239
	O2764	O	0.039176	0.184339	0.221602
	C2765	C	0.464414	0.563203	0.345209
	O2766	O	0.445472	0.571209	0.335920
	O2767	O	0.483345	0.555173	0.354470
	C2768	C	0.214533	0.739934	0.453416
	O2769	O	0.240525	0.759262	0.442171
	O2770	O	0.188541	0.720605	0.464687
	C2771	C	0.926899	0.244333	0.172170
	O2772	O	0.911204	0.257092	0.166330
	O2773	O	0.942606	0.231597	0.178009
	C2774	C	0.003916	0.815552	0.908515
	O2775	O	-0.014040	0.810422	0.933123
	O2776	O	0.021859	0.820657	0.883935
	C2777	C	0.606899	0.711832	0.994125
	O2778	O	0.585234	0.696030	0.975140
	O2779	O	0.628542	0.727634	1.013110
	C2780	C	0.703094	0.765626	0.895832
	O2781	O	0.689846	0.768016	0.870382
	O2782	O	0.716341	0.763236	0.921308
	C2783	C	0.946957	0.709690	0.318130
	O2784	O	0.936758	0.704647	0.288932
	O2785	O	0.957179	0.714733	0.347327
	C2786	C	0.236604	0.624364	0.794496
	O2787	O	0.229206	0.628725	0.823313
	O2788	O	0.244015	0.620027	0.765679
	C2789	C	0.920982	0.783868	0.360120
	O2790	O	0.902058	0.789923	0.346458
	O2791	O	0.939917	0.777838	0.373781
	C2792	C	0.419498	0.404466	0.121950
	O2793	O	0.426246	0.384281	0.114454
	O2794	O	0.412763	0.424675	0.129446
	C2795	C	0.204242	0.732345	0.995429
	O2796	O	0.209155	0.713979	1.012377
	O2797	O	0.199316	0.750686	0.978508
	C2798	C	0.093313	0.801760	0.566485
	O2799	O	0.108770	0.799182	0.542964
	O2800	O	0.077835	0.804337	0.590005
	C2801	C	0.639457	0.577873	0.240505
	O2802	O	0.659656	0.573588	0.226599
	O2803	O	0.619258	0.582157	0.254439
	C2804	C	0.573179	0.091078	0.654240
	O2805	O	0.575584	0.068058	0.661872
	O2806	O	0.570775	0.114098	0.646581
	C2807	C	0.728267	0.297338	0.032294
	O2808	O	0.729122	0.306883	0.002798
	O2809	O	0.727412	0.287794	0.061790
	C2810	C	0.232625	0.298923	0.763316
	O2811	O	0.230991	0.277646	0.745825
	O2812	O	0.234291	0.320224	0.780834
	C2813	C	0.427375	0.874815	0.304115
	O2814	O	0.401097	0.859769	0.292382
	O2815	O	0.453664	0.889884	0.315875
	C2816	C	0.865886	0.072803	0.427695
	O2817	O	0.837386	0.056926	0.431905
	O2818	O	0.894354	0.088657	0.423485
	C2819	C	0.238266	0.454890	0.554969
	O2820	O	0.253641	0.476804	0.573764
	O2821	O	0.222925	0.433000	0.536174
	C2822	C	0.225517	0.284828	0.450482
	O2823	O	0.227217	0.267270	0.429515
	O2824	O	0.223806	0.302361	0.471450
	C2825	C	0.405587	0.587796	0.060378
	O2826	O	0.382968	0.587784	0.047096
	O2827	O	0.428207	0.587809	0.073659
	C2828	C	0.019874	0.598841	0.653805
	O2829	O	0.029487	0.612392	0.625884
	O2830	O	0.010253	0.585315	0.681726
	C2831	C	0.605420	0.345416	0.039274
	O2832	O	0.621738	0.371877	0.027351
	O2833	O	0.589069	0.318930	0.051197
	C2834	C	0.579862	0.767162	0.241429
	O2835	O	0.559807	0.741216	0.232656
	O2836	O	0.599917	0.793107	0.250229
	C2837	C	0.252545	0.479470	0.990621
	O2838	O	0.274523	0.476254	1.000535
	O2839	O	0.230544	0.482686	0.980735
	C2840	C	0.590939	0.278513	0.796397
	O2841	O	0.584370	0.269670	0.826518
	O2842	O	0.597507	0.287357	0.766304
	C2843	C	0.198239	0.439508	0.450401
	O2844	O	0.173546	0.437385	0.461048
	O2845	O	0.222952	0.441632	0.439754
	C2846	C	0.362046	0.599109	0.656222
	O2847	O	0.376076	0.622937	0.638405
	O2848	O	0.348026	0.575257	0.674040
	C2849	C	0.348818	0.824192	0.220108
	O2850	O	0.360304	0.814453	0.198624
	O2851	O	0.337331	0.833931	0.241592
	C2852	C	0.913824	0.830495	0.979350
	O2853	O	0.941094	0.841292	0.988177
	O2854	O	0.886541	0.819674	0.970523
	C2855	C	0.456403	0.019665	0.050355
	O2856	O	0.484406	0.038574	0.051849
	O2857	O	0.428378	0.000757	0.048834
	C2858	C	0.815726	0.780831	0.871197
	O2859	O	0.840669	0.805323	0.869595
	O2860	O	0.790749	0.756314	0.872800
	C2861	C	0.232756	0.970859	0.092182
	O2862	O	0.221485	0.983637	0.109755
	O2863	O	0.244005	0.958081	0.074610
	C2864	C	0.555895	0.427894	0.009642
	O2865	O	0.541715	0.437628	-0.007904
	O2866	O	0.570074	0.418160	0.027215
	C2867	C	0.526488	0.086700	0.164022
	O2868	O	0.538923	0.110760	0.180372
	O2869	O	0.514062	0.062615	0.147671
	C2870	C	0.869857	0.412229	0.421013
	O2871	O	0.886667	0.438965	0.410041
	O2872	O	0.853037	0.385516	0.432013
	C2873	C	0.290658	0.392973	0.977693
	O2874	O	0.274915	0.377198	0.953955
	O2875	O	0.306401	0.408747	1.001458
	C2876	C	0.858524	0.175719	0.512734
	O2877	O	0.882177	0.192596	0.528650
	O2878	O	0.834884	0.158866	0.496845
	C2879	C	0.155743	0.544309	0.778607
	O2880	O	0.149699	0.517872	0.770921
	O2881	O	0.161788	0.570745	0.786321
	C2882	C	0.228604	0.758275	0.324404
	O2883	O	0.221715	0.777920	0.314490
	O2884	O	0.235506	0.738655	0.334317
	C2885	C	0.795168	0.900741	0.106958
	O2886	O	0.769010	0.881373	0.117795
	O2887	O	0.821326	0.920110	0.096148
	C2888	C	0.907072	0.470796	0.321796
	O2889	O	0.878817	0.460448	0.318483
	O2890	O	0.935337	0.481120	0.325083
	C2891	C	0.737242	0.793571	0.567028
	O2892	O	0.733660	0.790046	0.598344
	O2893	O	0.740832	0.797071	0.535712
	C2894	C	0.150324	0.549344	0.074447
	O2895	O	0.159078	0.560506	0.045358
	O2896	O	0.141557	0.538158	0.103508
	C2897	C	0.801453	0.232138	0.441520
	O2898	O	0.828520	0.236992	0.439129
	O2899	O	0.774385	0.227284	0.443910
	C2900	C	0.571244	0.782735	0.490707
	O2901	O	0.559751	0.792676	0.511946
	O2902	O	0.582736	0.772793	0.469468
	C2903	C	0.445676	0.735142	0.116681
	O2904	O	0.440548	0.753334	0.099787
	O2905	O	0.450813	0.716924	0.133602
	C2906	C	0.523298	0.400593	0.352162
	O2907	O	0.530692	0.417642	0.326495
	O2908	O	0.515882	0.383543	0.377856
	C2909	C	0.582176	0.221420	0.505265
	O2910	O	0.599808	0.215258	0.521616
	O2911	O	0.564556	0.227605	0.488914
	C2912	C	0.434597	0.382372	0.435082
	O2913	O	0.439492	0.400933	0.411317
	O2914	O	0.429690	0.363786	0.458875
	C2915	C	0.453175	0.554667	0.149409
	O2916	O	0.428495	0.539941	0.134281
	O2917	O	0.477842	0.569369	0.164538
	C2918	C	0.665215	0.064445	0.582944
	O2919	O	0.646663	0.060369	0.606600
	O2920	O	0.683754	0.068496	0.559287
	C2921	C	0.705772	0.098685	0.907429
	O2922	O	0.699777	0.099165	0.938066
	O2923	O	0.711733	0.098180	0.876819
	C2924	C	0.330946	0.180263	0.915414
	O2925	O	0.306050	0.174845	0.929239
	O2926	O	0.355876	0.185705	0.901590
	C2927	C	0.765404	0.513773	0.553013
	O2928	O	0.779534	0.542285	0.554670
	O2929	O	0.751252	0.485262	0.551356
	C2930	C	0.128451	0.281579	0.976118
	O2931	O	0.117090	0.277706	0.947491
	O2932	O	0.139811	0.285451	1.004745
	C2933	C	0.770664	0.292887	0.364764
	O2934	O	0.792344	0.287420	0.360065
	O2935	O	0.748974	0.298378	0.369463
	C2936	C	0.904276	0.467025	0.839582
	O2937	O	0.898543	0.446483	0.818805
	O2938	O	0.910008	0.487567	0.860360
	C2939	C	0.107215	0.893443	0.329157
	O2940	O	0.084095	0.885178	0.311313
	O2941	O	0.130302	0.901684	0.347001
	C2942	C	0.053646	0.762469	0.228175
	O2943	O	0.051143	0.755034	0.197972
	O2944	O	0.056160	0.769928	0.258404
	C2945	C	0.241352	0.655812	0.071405
	O2946	O	0.251144	0.653387	0.043049
	O2947	O	0.231549	0.658213	0.099733
	C2948	C	0.382842	0.098448	0.897760
	O2949	O	0.395969	0.105370	0.925464
	O2950	O	0.369703	0.091501	0.870083
	C2951	C	0.093303	0.187765	0.928587
	O2952	O	0.086332	0.173587	0.901590
	O2953	O	0.100275	0.201943	0.955584
	C2954	C	0.152726	0.640474	0.028328
	O2955	O	0.137019	0.629443	0.002743
	O2956	O	0.168445	0.651530	0.053913
	C2957	C	0.628658	0.876171	0.918728
	O2958	O	0.656512	0.895645	0.915686
	O2959	O	0.600803	0.856698	0.921770
	C2960	C	0.823592	0.933809	0.439075
	O2961	O	0.800899	0.908726	0.447631
	O2962	O	0.846265	0.958893	0.430492
	C2963	C	0.316269	0.487278	0.239555
	O2964	O	0.337264	0.482866	0.228175
	O2965	O	0.295262	0.491666	0.250962
	C2966	C	0.698381	0.526235	0.893930
	O2967	O	0.687870	0.538277	0.913703
	O2968	O	0.708892	0.514194	0.874158
	C2969	C	0.062946	0.575626	0.921335
	O2970	O	0.048886	0.573818	0.948360
	O2971	O	0.077038	0.577457	0.894338
	C2972	C	0.422550	0.674074	0.724857
	O2973	O	0.423191	0.699274	0.722412
	O2974	O	0.421875	0.648849	0.727328
	C2975	C	0.331235	0.276522	0.599783
	O2976	O	0.359390	0.290638	0.605460
	O2977	O	0.303089	0.262383	0.594079
	C2978	C	0.582333	0.338141	0.365552
	O2979	O	0.558303	0.321126	0.350315
	O2980	O	0.606362	0.355155	0.380789
	C2981	C	0.399553	0.405704	0.834531
	O2982	O	0.422413	0.407559	0.849224
	O2983	O	0.376705	0.403875	0.819810
	C2984	C	0.433755	0.064451	0.789471
	O2985	O	0.442866	0.086704	0.769264
	O2986	O	0.424664	0.042197	0.809706
	C2987	C	0.549828	0.615748	0.099814
	O2988	O	0.555111	0.632861	0.124340
	O2989	O	0.544533	0.598612	0.075261
	C2990	C	0.935527	0.395453	0.655679
	O2991	O	0.911278	0.373607	0.645250
	O2992	O	0.959787	0.417275	0.666082
	C2993	C	0.760912	0.870837	0.670971
	O2994	O	0.744203	0.869157	0.646934
	O2995	O	0.777609	0.872493	0.694980
	C2996	C	0.583600	0.263886	0.144575
	O2997	O	0.595889	0.272453	0.172523
	O2998	O	0.571320	0.255294	0.116654
	C2999	C	0.114116	0.382984	0.749573
	O3000	O	0.111185	0.393352	0.721869
	O3001	O	0.117034	0.372590	0.777304
	C3002	C	0.798995	0.612422	0.996515
	O3003	O	0.787914	0.620051	0.972560
	O3004	O	0.810076	0.604794	1.020443
	C3005	C	0.128174	0.913579	0.088217
	O3006	O	0.101631	0.900030	0.101037
	O3007	O	0.154704	0.927103	0.075424
	C3008	C	0.404591	0.560412	0.256584
	O3009	O	0.376910	0.553400	0.259708
	O3010	O	0.432272	0.567424	0.253488
	C3011	C	0.837520	0.478513	0.190883
	O3012	O	0.853548	0.493942	0.214649
	O3013	O	0.821493	0.463084	0.167118
	C3014	C	0.697162	0.221988	0.233661
	O3015	O	0.725563	0.239363	0.230809
	O3016	O	0.668762	0.204612	0.236513
	C3017	C	0.896352	0.397822	0.000326
	O3018	O	0.897702	0.423130	-0.004889
	O3019	O	0.894991	0.372539	0.005541
	C3020	C	0.964016	0.236561	0.556381
	O3021	O	0.959440	0.235849	0.587507
	O3022	O	0.968581	0.237250	0.525228
	C3023	C	0.368856	0.766071	0.573383
	O3024	O	0.359306	0.766409	0.602581
	O3025	O	0.378395	0.765709	0.544159
	C3026	C	0.660763	0.085397	0.280621
	O3027	O	0.656042	0.076135	0.310688
	O3028	O	0.665483	0.094658	0.250555
	C3029	C	0.122848	0.194317	0.543833
	O3030	O	0.128182	0.176167	0.527537
	O3031	O	0.117513	0.212467	0.560129
	C3032	C	0.451843	0.025453	0.721706
	O3033	O	0.426758	0.017546	0.707882
	O3034	O	0.476939	0.033384	0.735558
	C3035	C	0.444211	0.551685	0.007388
	O3036	O	0.458189	0.547754	0.031180
	O3037	O	0.430244	0.555640	-0.016405
	C3038	C	0.368172	0.427245	0.238849
	O3039	O	0.372945	0.432008	0.269594
	O3040	O	0.363434	0.422506	0.208076
	C3041	C	0.804014	0.548839	0.072708
	O3042	O	0.814634	0.539852	0.049486
	O3043	O	0.793384	0.557852	0.095903
	C3044	C	0.269850	0.555316	0.532643
	O3045	O	0.259757	0.560610	0.559260
	O3046	O	0.279922	0.550022	0.505998
	C3047	C	0.235441	0.293172	0.102965
	O3048	O	0.244622	0.285643	0.077190
	O3049	O	0.226272	0.300726	0.128713
	C3050	C	0.553986	0.949876	0.107093
	O3051	O	0.550013	0.972194	0.112743
	O3052	O	0.557948	0.927534	0.101444
	C3053	C	0.116965	0.230132	0.399285
	O3054	O	0.099120	0.229546	0.422127
	O3055	O	0.134776	0.230692	0.376470
	C3056	C	0.239181	0.094274	0.911014
	O3057	O	0.219461	0.084998	0.888580
	O3058	O	0.258910	0.103524	0.933476
	C3059	C	0.127934	0.768114	0.824182
	O3060	O	0.112424	0.747872	0.845911
	O3061	O	0.143455	0.788380	0.802454
	C3062	C	0.884683	0.641795	0.026454
	O3063	O	0.874861	0.624937	0.001521
	O3064	O	0.894492	0.658627	0.051415
	C3065	C	0.121212	0.890261	0.993772
	O3066	O	0.102809	0.893801	0.975629
	O3067	O	0.139615	0.886722	1.011915
	C3068	C	0.971963	0.057168	0.652800
	O3069	O	0.978433	0.061641	0.683274
	O3070	O	0.965514	0.052694	0.622326
	C3071	C	0.056223	0.883988	0.228528
	O3072	O	0.032802	0.882284	0.242570
	O3073	O	0.079643	0.885691	0.214486
	C3074	C	0.907815	0.910610	0.504830
	O3075	O	0.891020	0.917857	0.488371
	O3076	O	0.924588	0.903362	0.521317
	C3077	C	0.554243	0.854948	0.542828
	O3078	O	0.564450	0.858243	0.571971
	O3079	O	0.544049	0.851678	0.513658
	C3080	C	0.114197	0.366072	0.417510
	O3081	O	0.094863	0.371511	0.403848
	O3082	O	0.133519	0.360608	0.431199
	C3083	C	0.402317	0.170538	0.604428
	O3084	O	0.406476	0.148926	0.595682
	O3085	O	0.398180	0.192149	0.613173
	C3086	C	0.823822	0.404122	0.068743
	O3087	O	0.849858	0.414375	0.081128
	O3088	O	0.797786	0.393869	0.056358
	C3089	C	0.246802	0.164411	0.842163
	O3090	O	0.250734	0.182184	0.865738
	O3091	O	0.242848	0.146637	0.818615
	C3092	C	0.821126	0.573959	0.852809
	O3093	O	0.833801	0.568817	0.828256
	O3094	O	0.808473	0.579100	0.877390
	C3095	C	0.402516	0.880860	0.995728
	O3096	O	0.377563	0.875851	0.983451
	O3097	O	0.427470	0.885869	1.008031
	C3098	C	0.247826	0.482804	0.650519
	O3099	O	0.272561	0.507459	0.651660
	O3100	O	0.223114	0.458149	0.649351
	C3101	C	0.571637	0.934210	0.486144
	O3102	O	0.586531	0.939114	0.512598
	O3103	O	0.556743	0.929306	0.459690
	C3104	C	0.040274	0.276904	0.027242
	O3105	O	0.063581	0.301960	0.032701
	O3106	O	0.016956	0.251824	0.021783
	C3107	C	0.740024	0.121467	0.236187
	O3108	O	0.742832	0.120211	0.267340
	O3109	O	0.737238	0.122722	0.205007
	C3110	C	0.283749	0.709725	0.323426
	O3111	O	0.280510	0.706053	0.292327
	O3112	O	0.286988	0.713397	0.354498
	C3113	C	0.174529	0.303797	0.671025
	O3114	O	0.147600	0.297264	0.664371
	O3115	O	0.201493	0.310355	0.677652
	C3116	C	0.515283	0.718499	0.703291
	O3117	O	0.529108	0.739404	0.681645
	O3118	O	0.501459	0.697595	0.724938
	C3119	C	0.426081	0.736538	0.799928
	O3120	O	0.431635	0.760119	0.783279
	O3121	O	0.420527	0.712956	0.816578
	C3122	C	0.766536	0.195287	0.918918
	O3123	O	0.752501	0.169372	0.906397
	O3124	O	0.780584	0.221226	0.931439
	C3125	C	0.491987	0.958490	0.008039
	O3126	O	0.469632	0.962096	0.000625
	O3127	O	0.514319	0.954883	0.015481
	C3128	C	0.150011	0.737239	0.724259
	O3129	O	0.130396	0.745880	0.722141
	O3130	O	0.169617	0.728623	0.726378
	C3131	C	0.559324	0.796532	0.140392
	O3132	O	0.579068	0.800080	0.118392
	O3133	O	0.539602	0.792984	0.162392
	C3134	C	0.588813	0.034564	0.992170
	O3135	O	0.599413	0.036585	1.020987
	O3136	O	0.578211	0.032542	0.963379
	C3137	C	0.284090	0.718095	0.992604
	O3138	O	0.266379	0.703216	0.969626
	O3139	O	0.301779	0.732975	1.015582
	C3140	C	0.593892	0.138860	0.564149
	O3141	O	0.615939	0.156639	0.581640
	O3142	O	0.571879	0.121105	0.546657
	C3143	C	0.649332	0.803896	0.923807
	O3144	O	0.651195	0.828223	0.912644
	O3145	O	0.647448	0.779570	0.934970
	C3146	C	0.118499	0.540101	0.193762
	O3147	O	0.131760	0.565187	0.208212
	O3148	O	0.105250	0.515040	0.179313
	C3149	C	0.776874	0.875914	0.996651
	O3150	O	0.798269	0.881676	1.016397
	O3151	O	0.755467	0.870129	0.976878
	C3152	C	0.795562	0.259641	0.108017
	O3153	O	0.771701	0.242265	0.124721
	O3154	O	0.819422	0.277017	0.091313
	C3155	C	0.676311	0.849736	0.587452
	O3156	O	0.663504	0.861394	0.604400
	O3157	O	0.689097	0.838077	0.570504
	C3158	C	0.996113	0.485110	0.600109
	O3159	O	1.006812	0.472935	0.580825
	O3160	O	0.985392	0.497285	0.619393
	C3161	C	0.129543	0.563761	0.428781
	O3162	O	0.157386	0.571782	0.424544
	O3163	O	0.101679	0.555740	0.432991
	C3164	C	0.338798	0.849732	0.896157
	O3165	O	0.328565	0.867915	0.899308
	O3166	O	0.349041	0.831523	0.893007
	C3167	C	0.463208	0.109039	0.209108
	O3168	O	0.472781	0.090150	0.208999
	O3169	O	0.453656	0.127928	0.209244
	C3170	C	0.368879	0.943113	0.664697
	O3171	O	0.378541	0.961011	0.639655
	O3172	O	0.359229	0.925239	0.689738
	C3173	C	0.192066	0.874892	0.826247
	O3174	O	0.164487	0.865043	0.819131
	O3175	O	0.219624	0.884740	0.833363
	C3176	C	0.424236	0.549074	0.671758
	O3177	O	0.447728	0.558040	0.689087
	O3178	O	0.400711	0.540084	0.654430
	C3179	C	0.945126	0.562449	0.542312
	O3180	O	0.951782	0.571073	0.512137
	O3181	O	0.938493	0.553826	0.572460
	C3182	C	0.216908	0.066828	0.014748
	O3183	O	0.208418	0.083594	0.000081
	O3184	O	0.225431	0.050087	0.029415
	C3185	C	0.580538	0.652344	0.744820
	O3186	O	0.580187	0.674178	0.759296
	O3187	O	0.580911	0.630509	0.730343
	C3188	C	0.570213	0.732369	0.365769
	O3189	O	0.574874	0.751842	0.343117
	O3190	O	0.565540	0.712871	0.388421
	C3191	C	0.288267	0.056134	0.971663
	O3192	O	0.303316	0.069165	0.997031
	O3193	O	0.273207	0.043079	0.946268
	C3194	C	0.598211	0.005795	0.380979
	O3195	O	0.581845	-0.019003	0.366883
	O3196	O	0.614576	0.030593	0.395075
	C3197	C	0.767788	0.743310	0.462596
	O3198	O	0.760990	0.726599	0.488534
	O3199	O	0.774564	0.760019	0.436685
	C3200	C	0.752604	0.393265	0.126296
	O3201	O	0.775109	0.416827	0.114019
	O3202	O	0.730133	0.369728	0.138545
	C3203	C	0.349485	0.584593	0.959387
	O3204	O	0.329748	0.562693	0.976905
	O3205	O	0.369255	0.606518	0.941868
	C3206	C	0.372315	0.428959	0.575529
	O3207	O	0.384922	0.435136	0.603531
	O3208	O	0.359709	0.422783	0.547527
	C3209	C	0.783683	0.404410	0.452710
	O3210	O	0.790855	0.425051	0.430737
	O3211	O	0.776490	0.383769	0.474682
	C3212	C	0.671308	0.276168	0.277851
	O3213	O	0.643527	0.261372	0.270599
	O3214	O	0.699102	0.290989	0.285076
	C3215	C	0.755635	0.505634	0.297053
	O3216	O	0.732519	0.486824	0.281681
	O3217	O	0.778773	0.524444	0.312426
	C3218	C	0.622292	0.374627	0.657445
	O3219	O	0.610383	0.374990	0.630040
	O3220	O	0.634223	0.374265	0.684850
	C3221	C	0.187913	0.182680	0.487747
	O3222	O	0.176361	0.191047	0.464959
	O3223	O	0.199466	0.174313	0.510507
	C3224	C	0.737421	0.442021	0.849007
	O3225	O	0.761135	0.440738	0.856069
	O3226	O	0.713718	0.443329	0.841945
	C3227	C	0.121664	0.213511	0.759568
	O3228	O	0.146418	0.222376	0.743489
	O3229	O	0.096876	0.204622	0.775647
	C3230	C	0.568844	0.544628	0.529085
	O3231	O	0.574121	0.559444	0.501897
	O3232	O	0.563534	0.529788	0.556272
	C3233	C	0.254594	0.848782	0.491250
	O3234	O	0.279887	0.872920	0.491223
	O3235	O	0.229280	0.824643	0.491277
	C3236	C	0.488811	0.293150	0.404391
	O3237	O	0.515898	0.309782	0.413327
	O3238	O	0.461746	0.276518	0.395455
	C3239	C	0.433694	0.861717	0.650492
	O3240	O	0.409551	0.856728	0.636124
	O3241	O	0.457850	0.866731	0.664832
	C3242	C	0.977050	0.724671	0.960283
	O3243	O	0.987458	0.734356	0.931140
	O3244	O	0.966643	0.714986	0.989426
	C3245	C	0.343134	0.837234	0.578897
	O3246	O	0.360069	0.834668	0.557114
	O3247	O	0.326220	0.839799	0.600679
	C3248	C	0.369777	0.275419	0.018360
	O3249	O	0.385819	0.303924	0.016839
	O3250	O	0.353715	0.246914	0.019854
	C3251	C	0.375643	0.751755	0.216631
	O3252	O	0.379992	0.761000	0.246236
	O3253	O	0.371260	0.742484	0.187054
	C3254	C	0.278630	0.040364	0.658857
	O3255	O	0.297763	0.051007	0.681808
	O3256	O	0.259519	0.029721	0.635879
	C3257	C	0.568730	0.470492	0.233254
	O3258	O	0.550905	0.444176	0.223340
	O3259	O	0.586577	0.496806	0.243194
	C3260	C	0.615522	0.899204	0.210276
	O3261	O	0.629641	0.897730	0.184691
	O3262	O	0.601404	0.900679	0.235834
	C3263	C	0.857272	0.649564	0.378372
	O3264	O	0.836437	0.648522	0.397194
	O3265	O	0.878094	0.650581	0.359549
	C3266	C	0.543456	0.436633	0.458169
	O3267	O	0.514847	0.422557	0.462216
	O3268	O	0.572031	0.450686	0.454095
	C3269	C	0.241398	0.433469	0.325843
	O3270	O	0.261508	0.425899	0.330868
	O3271	O	0.221288	0.441040	0.320792
	C3272	C	0.616209	0.532516	0.907782
	O3273	O	0.602480	0.513519	0.931249
	O3274	O	0.629960	0.551514	0.884316
	C3275	C	0.366741	0.767424	0.910851
	O3276	O	0.358089	0.772423	0.938609
	O3277	O	0.375392	0.762425	0.883066
	C3278	C	0.466095	0.203478	0.094410
	O3279	O	0.452661	0.218825	0.090852
	O3280	O	0.479517	0.188108	0.097940
	C3281	C	0.598828	0.023912	0.691151
	O3282	O	0.619049	0.048413	0.702993
	O3283	O	0.578607	-0.000590	0.679336
	C3284	C	0.676101	0.410748	0.933014
	O3285	O	0.703549	0.427276	0.923725
	O3286	O	0.648687	0.394245	0.942276
	C3287	C	0.742618	0.210503	0.333340
	O3288	O	0.715262	0.196359	0.324377
	O3289	O	0.769974	0.224648	0.342275
	C3290	C	0.243507	0.854973	0.242407
	O3291	O	0.230139	0.839006	0.268127
	O3292	O	0.256887	0.870964	0.216686
	C3293	C	0.394236	0.267940	0.661546
	O3294	O	0.421573	0.279860	0.651198
	O3295	O	0.366911	0.256045	0.671894
	C3296	C	0.854722	0.058062	0.016921
	O3297	O	0.867303	0.082251	-0.000489
	O3298	O	0.842161	0.033873	0.034358
	C3299	C	0.905234	0.764721	0.241537
	O3300	O	0.884937	0.750911	0.220380
	O3301	O	0.925530	0.778531	0.262695
	C3302	C	0.023662	0.494592	0.883229
	O3303	O	0.037024	0.503098	0.855064
	O3304	O	0.010287	0.486061	0.911367
	C3305	C	0.123608	0.647176	0.679906
	O3306	O	0.111274	0.642210	0.651741
	O3307	O	0.135921	0.652142	0.708045
	C3308	C	0.910891	0.610296	0.800471
	O3309	O	0.911180	0.596061	0.774968
	O3310	O	0.910580	0.624530	0.825975
	C3311	C	0.856046	0.751460	0.451161
	O3312	O	0.882462	0.759713	0.439482
	O3313	O	0.829639	0.743181	0.462840
	C3314	C	0.911821	0.476426	0.664316
	O3315	O	0.892856	0.479221	0.646418
	O3316	O	0.930797	0.473606	0.682188
	C3317	C	0.873592	0.798642	0.783225
	O3318	O	0.893108	0.791931	0.772225
	O3319	O	0.854055	0.805354	0.794197
	C3320	C	0.880080	0.429764	0.231570
	O3321	O	0.906206	0.450058	0.239745
	O3322	O	0.853954	0.409471	0.223367
	C3323	C	0.715257	0.566821	0.303708
	O3324	O	0.691068	0.567536	0.310634
	O3325	O	0.739445	0.566107	0.296782
	C3326	C	0.449752	0.219951	0.323399
	O3327	O	0.439760	0.224760	0.296564
	O3328	O	0.459757	0.215168	0.350233
	C3329	C	0.085115	0.544166	0.321987
	O3330	O	0.072297	0.534531	0.294473
	O3331	O	0.097912	0.553802	0.349473
	C3332	C	0.758339	0.065370	0.130533
	O3333	O	0.755181	0.043263	0.148486
	O3334	O	0.761498	0.087476	0.112580
	C3335	C	0.284082	0.720004	0.655788
	O3336	O	0.289525	0.725906	0.686262
	O3337	O	0.278640	0.714102	0.625314
	C3338	C	0.880878	0.876047	0.843684
	O3339	O	0.858839	0.880354	0.836921
	O3340	O	0.902916	0.871740	0.850474
	C3341	C	0.042279	0.087860	0.897624
	O3342	O	0.056090	0.101896	0.923182
	O3343	O	0.028468	0.073823	0.872066
	C3344	C	0.458301	0.227074	0.469956
	O3345	O	0.429842	0.216191	0.473243
	O3346	O	0.486751	0.237981	0.466670
	C3347	C	0.133525	0.216312	0.074718
	O3348	O	0.158440	0.231186	0.058666
	O3349	O	0.108630	0.201438	0.090770
	C3350	C	0.920678	0.818123	0.876874
	O3351	O	0.940725	0.837787	0.894962
	O3352	O	0.900619	0.798436	0.858758
	C3353	C	0.686493	0.598265	0.640388
	O3354	O	0.661259	0.574065	0.642153
	O3355	O	0.711716	0.622489	0.638650
	C3356	C	0.490605	0.310325	0.012358
	O3357	O	0.512548	0.328852	0.029442
	O3358	O	0.468654	0.291823	-0.004753
	C3359	C	0.218995	0.748221	0.663176
	O3360	O	0.205688	0.762836	0.654647
	O3361	O	0.232302	0.733606	0.671677
	C3362	C	0.449399	0.527315	0.554425
	O3363	O	0.440900	0.509255	0.530443
	O3364	O	0.457898	0.545375	0.578408
	C3365	C	0.071539	0.939708	0.014476
	O3366	O	0.050608	0.920605	0.033625
	O3367	O	0.092436	0.958786	-0.004672
	C3368	C	0.753667	0.099267	0.509230
	O3369	O	0.745111	0.116404	0.495623
	O3370	O	0.762244	0.082129	0.522865
	C3371	C	0.010857	0.511740	0.220868
	O3372	O	0.007994	0.534141	0.229560
	O3373	O	0.013732	0.489364	0.212204
	C3374	C	0.088278	0.213500	0.652637
	O3375	O	0.107534	0.220649	0.675425
	O3376	O	0.069034	0.206375	0.629850
	C3377	C	0.909905	0.668477	0.730941
	O3378	O	0.911173	0.656165	0.704215
	O3379	O	0.908671	0.680813	0.757667
	C3380	C	0.694024	0.254212	0.650383
	O3381	O	0.718385	0.274794	0.636966
	O3382	O	0.669676	0.233656	0.663773
	C3383	C	0.563246	0.772783	0.766928
	O3384	O	0.543314	0.745610	0.772958
	O3385	O	0.583168	0.799980	0.760872
	C3386	C	0.895426	0.280972	0.797755
	O3387	O	0.902582	0.263354	0.783089
	O3388	O	0.888249	0.298590	0.812422
	C3389	C	0.120162	0.102782	0.861963
	O3390	O	0.131148	0.087036	0.873886
	O3391	O	0.109176	0.118529	0.850066
	C3392	C	0.884958	0.538615	0.867802
	O3393	O	0.909359	0.562316	0.874429
	O3394	O	0.860569	0.514938	0.861202
	C3395	C	0.922250	0.142387	0.669069
	O3396	O	0.950238	0.152356	0.673958
	O3397	O	0.894263	0.132418	0.664153
	C3398	C	0.172044	0.325820	0.347327
	O3399	O	0.197585	0.344895	0.358354
	O3400	O	0.146504	0.306745	0.336300
	C3401	C	0.902175	0.448793	0.129229
	O3402	O	0.918480	0.447245	0.105926
	O3403	O	0.885903	0.450365	0.152533
	C3404	C	0.753596	0.721309	0.116247
	O3405	O	0.740380	0.698696	0.135965
	O3406	O	0.766811	0.743921	0.096528
	C3407	C	0.333745	0.500887	0.901019
	O3408	O	0.314393	0.504065	0.918320
	O3409	O	0.353086	0.497685	0.883691
	C3410	C	0.288699	0.201822	0.538374
	O3411	O	0.280364	0.208553	0.511485
	O3412	O	0.297067	0.195116	0.565289
	C3413	C	0.041477	0.848174	0.546331
	O3414	O	0.047101	0.834219	0.523870
	O3415	O	0.035819	0.862104	0.568793
	C3416	C	0.988143	0.131758	0.972424
	O3417	O	1.002726	0.118604	0.963244
	O3418	O	0.973538	0.144911	0.981631
	C3419	C	0.055185	0.724388	0.499833
	O3420	O	0.068034	0.710666	0.487258
	O3421	O	0.042347	0.738134	0.512408
	C3422	C	0.700919	0.601231	0.970333
	O3423	O	0.713425	0.619703	0.946133
	O3424	O	0.688413	0.582760	0.994532
	C3425	C	0.298948	0.051418	0.320520
	O3426	O	0.307497	0.058126	0.350179
	O3427	O	0.290378	0.044711	0.290861
	C3428	C	0.198053	0.109976	0.560319
	O3429	O	0.214641	0.127483	0.582536
	O3430	O	0.181464	0.092469	0.538102
	C3431	C	0.090830	0.841583	0.849740
	O3432	O	0.070553	0.815343	0.842081
	O3433	O	0.111095	0.867799	0.857400
	C3434	C	0.357799	0.932088	0.955421
	O3435	O	0.383367	0.949621	0.941760
	O3436	O	0.332241	0.914532	0.969056
	C3437	C	0.681223	0.852739	0.235128
	O3438	O	0.679353	0.875627	0.244036
	O3439	O	0.683126	0.829875	0.226219
	C3440	C	0.210648	0.797180	0.898032
	O3441	O	0.232588	0.822905	0.904441
	O3442	O	0.188697	0.771430	0.891622
	C3443	C	0.005658	0.397756	0.577702
	O3444	O	0.014531	0.395167	0.548912
	O3445	O	-0.003204	0.400368	0.606492
	C3446	C	0.713383	0.912727	0.972831
	O3447	O	0.686055	0.897388	0.982962
	O3448	O	0.740732	0.928066	0.962700
	C3449	C	0.054931	0.288314	0.357458
	O3450	O	0.030973	0.262870	0.358626
	O3451	O	0.078876	0.313732	0.356290
	C3452	C	0.197151	0.184849	0.179177
	O3453	O	0.175557	0.176607	0.159078
	O3454	O	0.218744	0.193090	0.199276
	C3455	C	0.661052	0.132947	0.632403
	O3456	O	0.645679	0.125646	0.659427
	O3457	O	0.676446	0.140246	0.605405
	C3458	C	0.912647	0.792469	0.698430
	O3459	O	0.933885	0.789799	0.711630
	O3460	O	0.891396	0.795114	0.685257
	C3461	C	0.833726	0.120442	0.216088
	O3462	O	0.835143	0.145916	0.212340
	O3463	O	0.832331	0.094968	0.219863
	C3464	C	0.382304	0.960283	0.364167
	O3465	O	0.364321	0.932345	0.369110
	O3466	O	0.400308	0.988220	0.359251
	C3467	C	0.140207	0.748057	0.492934
	O3468	O	0.141528	0.756603	0.462922
	O3469	O	0.138919	0.739535	0.522974
	C3470	C	0.681112	0.947071	0.301100
	O3471	O	0.704667	0.972781	0.301290
	O3472	O	0.657544	0.921335	0.300937
	C3473	C	0.910965	0.613431	0.463873
	O3474	O	0.913146	0.619254	0.494591
	O3475	O	0.908783	0.607608	0.433181
	C3476	C	0.226543	0.769821	0.153646
	O3477	O	0.243995	0.775629	0.128442
	O3478	O	0.209081	0.764038	0.178851
	C3479	C	0.866830	0.104855	0.122303
	O3480	O	0.849883	0.109507	0.142076
	O3481	O	0.883766	0.100178	0.102531
	C3482	C	0.250315	0.605910	0.148866
	O3483	O	0.247059	0.607311	0.117795
	O3484	O	0.253592	0.604509	0.179911
	C3485	C	0.803107	0.565219	0.723200
	O3486	O	0.787983	0.564821	0.748785
	O3487	O	0.818210	0.565617	0.697588
	C3488	C	0.370365	0.441171	0.905066
	O3489	O	0.360734	0.431089	0.934318
	O3490	O	0.379974	0.451253	0.875814
	C3491	C	0.898477	0.289333	0.102802
	O3492	O	0.903265	0.271071	0.085990
	O3493	O	0.893699	0.307571	0.119614
	C3494	C	0.558938	0.091404	0.034602
	O3495	O	0.549837	0.102164	0.011652
	O3496	O	0.568072	0.080669	0.057553
	C3497	C	0.454323	0.375591	0.727763
	O3498	O	0.480462	0.386095	0.739958
	O3499	O	0.428174	0.365113	0.715568
	C3500	C	0.214524	0.442960	0.209923
	O3501	O	0.226816	0.464048	0.230510
	O3502	O	0.202223	0.421896	0.189335
	C3503	C	0.465687	0.578102	0.450428
	O3504	O	0.493050	0.590167	0.440216
	O3505	O	0.438302	0.566038	0.460613
	C3506	C	0.980822	0.916381	0.916962
	O3507	O	0.955445	0.910966	0.929483
	O3508	O	1.006188	0.921771	0.904441
	C3509	C	0.065233	0.433648	0.873234
	O3510	O	0.087383	0.437556	0.890943
	O3511	O	0.043083	0.429739	0.855526
	C3512	C	0.238802	0.959293	0.775701
	O3513	O	0.234590	0.965665	0.804953
	O3514	O	0.242992	0.952922	0.746422
	C3515	C	0.177293	0.477853	0.863130
	O3516	O	0.197504	0.477421	0.881083
	O3517	O	0.157071	0.478309	0.845205
	C3518	C	0.078375	0.566062	0.564665
	O3519	O	0.081797	0.545487	0.551193
	O3520	O	0.074952	0.586636	0.578163
	C3521	C	0.004319	0.261373	0.275189
	O3522	O	-0.024101	0.249197	0.280187
	O3523	O	0.032749	0.273524	0.270192
	C3524	C	0.275557	0.187669	0.191291
	O3525	O	0.284514	0.206437	0.167036
	O3526	O	0.266567	0.168877	0.215545
	C3527	C	0.818707	0.070851	0.735368
	O3528	O	0.837834	0.063651	0.746151
	O3529	O	0.799591	0.078075	0.724612
	C3530	C	0.564501	0.779249	0.932688
	O3531	O	0.560351	0.784526	0.962456
	O3532	O	0.568638	0.773948	0.902920
	C3533	C	0.043545	0.095249	0.565996
	O3534	O	0.053841	0.111758	0.591119
	O3535	O	0.033235	0.078716	0.540872
	C3536	C	0.902640	0.115464	0.314436
	O3537	O	0.884313	0.125194	0.308596
	O3538	O	0.920968	0.105733	0.320275
	C3539	C	0.136313	0.393065	0.070943
	O3540	O	0.118959	0.402323	0.059536
	O3541	O	0.153646	0.383808	0.082350
	C3542	C	0.369936	0.078304	0.220488
	O3543	O	0.372201	0.069782	0.191617
	O3544	O	0.367670	0.086827	0.249360
	C3545	C	0.490061	0.638332	0.667250
	O3546	O	0.474744	0.636241	0.641719
	O3547	O	0.505379	0.640424	0.692753
	C3548	C	0.593675	0.791624	0.034412
	O3549	O	0.610083	0.811495	0.012711
	O3550	O	0.577266	0.771752	0.056141
	C3551	C	0.424238	0.710197	0.429542
	O3552	O	0.424383	0.702438	0.459608
	O3553	O	0.424093	0.717956	0.399475
	C3554	C	0.002226	0.821323	0.302703
	O3555	O	0.004193	0.801282	0.286135
	O3556	O	0.000258	0.841363	0.319298
	C3557	C	0.443069	0.875079	0.852130
	O3558	O	0.433032	0.860220	0.825866
	O3559	O	0.453104	0.889937	0.878422
	C3560	C	0.646463	0.727888	0.627976
	O3561	O	0.652594	0.725847	0.597773
	O3562	O	0.640331	0.729929	0.658178
	C3563	C	0.847792	0.385429	0.707637
	O3564	O	0.862251	0.412390	0.696501
	O3565	O	0.833334	0.358469	0.718746
	C3566	C	0.241887	0.126062	0.316392
	O3567	O	0.213692	0.116892	0.319080
	O3568	O	0.270105	0.135233	0.313675
	C3569	C	0.041467	0.754090	0.887004
	O3570	O	0.054791	0.766755	0.913350
	O3571	O	0.028153	0.741401	0.860659
	C3572	C	0.888746	0.718173	0.668906
	O3573	O	0.904226	0.738488	0.647205
	O3574	O	0.873265	0.697858	0.690608
	C3575	C	0.911210	0.744593	0.938501
	O3576	O	0.913560	0.721749	0.947138
	O3577	O	0.908871	0.767461	0.929891
	C3578	C	0.568238	0.102361	0.908298
	O3579	O	0.577493	0.099249	0.936436
	O3580	O	0.558972	0.105449	0.880133
	C3581	C	0.947347	0.046159	0.316500
	O3582	O	0.942373	0.043493	0.285592
	O3583	O	0.952320	0.048825	0.347409
	C3584	C	0.697228	0.239198	0.948007
	O3585	O	0.677838	0.231478	0.971636
	O3586	O	0.716618	0.246919	0.924350
	C3587	C	0.261095	0.155079	0.987607
	O3588	O	0.246735	0.166869	0.974108
	O3589	O	0.275454	0.143289	1.001105
	C3590	C	0.175989	0.980652	0.330651
	O3591	O	0.149866	0.971421	0.318836
	O3592	O	0.202114	0.989884	0.342438
	C3593	C	0.531139	0.105213	0.771057
	O3594	O	0.553754	0.113910	0.751284
	O3595	O	0.508535	0.096540	0.790857
	C3596	C	0.428449	0.065286	0.115948
	O3597	O	0.423923	0.054024	0.145145
	O3598	O	0.432976	0.076550	0.086723
	C3599	C	0.477778	0.586574	0.770568
	O3600	O	0.449128	0.570564	0.770541
	O3601	O	0.506415	0.602558	0.770595
	C3602	C	0.421359	0.861161	0.506704
	O3603	O	0.401789	0.849595	0.484270
	O3604	O	0.440919	0.872753	0.529112
	C3605	C	0.119339	0.858408	0.223367
	O3606	O	0.133142	0.881071	0.241700
	O3607	O	0.105549	0.835769	0.205061
	C3608	C	0.012818	0.168999	0.576099
	O3609	O	0.026902	0.157646	0.560998
	O3610	O	-0.001277	0.180327	0.591200
	C3611	C	0.217153	0.086987	0.766412
	O3612	O	0.197900	0.087394	0.786620
	O3613	O	0.236406	0.086581	0.746178
	C3614	C	0.703063	0.192931	0.555702
	O3615	O	0.694388	0.207873	0.573410
	O3616	O	0.711717	0.177989	0.537966
	C3617	C	0.052011	0.945264	0.322312
	O3618	O	0.069118	0.959094	0.297434
	O3619	O	0.034881	0.931433	0.347191
	C3620	C	0.520268	0.852891	0.201394
	O3621	O	0.535704	0.845883	0.220488
	O3622	O	0.504810	0.859900	0.182273
	C3623	C	0.671936	0.490233	0.617437
	O3624	O	0.691706	0.490059	0.597855
	O3625	O	0.652177	0.490431	0.637020
	C3626	C	0.939136	0.376399	0.317831
	O3627	O	0.947480	0.381155	0.347735
	O3628	O	0.930804	0.371667	0.287900
	C3629	C	0.641177	0.131871	0.989073
	O3630	O	0.636213	0.152457	0.999693
	O3631	O	0.646129	0.111260	0.978426
	C3632	C	0.907591	0.311406	0.428428
	O3633	O	0.915954	0.292840	0.418976
	O3634	O	0.899216	0.329949	0.437880
	C3635	C	0.042239	0.095979	0.241728
	O3636	O	0.021852	0.085185	0.220054
	O3637	O	0.062649	0.106774	0.263374
	C3638	C	0.222708	0.634484	0.395999
	O3639	O	0.229071	0.650213	0.421855
	O3640	O	0.216356	0.618730	0.370115
	C3641	C	0.900330	0.098315	0.803459
	O3642	O	0.924631	0.104415	0.787706
	O3643	O	0.876021	0.092241	0.819185
	C3644	C	0.114156	0.871502	0.434105
	O3645	O	0.085679	0.860785	0.436549
	O3646	O	0.142633	0.882220	0.431633
	C3647	C	0.593070	0.201783	0.216713
	O3648	O	0.615398	0.212784	0.196288
	O3649	O	0.570764	0.190780	0.237165
	C3650	C	0.747975	0.354716	0.745716
	O3651	O	0.721245	0.336480	0.736916
	O3652	O	0.774693	0.372928	0.754516
	C3653	C	0.047150	0.419028	0.236078
	O3654	O	0.029188	0.411537	0.211960
	O3655	O	0.065123	0.426543	0.260197
	C3656	C	0.760121	0.046599	0.431063
	O3657	O	0.755826	0.019910	0.434050
	O3658	O	0.764416	0.073287	0.428102
	C3659	C	0.293715	0.573311	0.873940
	O3660	O	0.315831	0.572026	0.886841
	O3661	O	0.271619	0.574595	0.861066
	C3662	C	0.058611	0.281528	0.690798
	O3663	O	0.049312	0.280056	0.720565
	O3664	O	0.067901	0.283025	0.661030
	C3665	C	0.831873	0.199791	0.134498
	O3666	O	0.835406	0.226247	0.135503
	O3667	O	0.828362	0.173335	0.133493
	C3668	C	0.792963	0.553582	0.399068
	O3669	O	0.766863	0.535056	0.410801
	O3670	O	0.819053	0.572132	0.387335
	C3671	C	0.810331	0.553228	0.191508
	O3672	O	0.811386	0.535198	0.170757
	O3673	O	0.809277	0.571258	0.212259
	C3674	C	0.236713	0.804696	0.797321
	O3675	O	0.222883	0.811345	0.819321
	O3676	O	0.250531	0.798022	0.775348
	C3677	C	0.747970	0.456959	0.212938
	O3678	O	0.727886	0.458459	0.195745
	O3679	O	0.768021	0.455435	0.230157
	C3680	C	0.466172	0.943808	0.694464
	O3681	O	0.446036	0.943542	0.675778
	O3682	O	0.486308	0.944075	0.713151
	C3683	C	0.130616	0.627925	0.338554
	O3684	O	0.119796	0.617812	0.310362
	O3685	O	0.141448	0.638064	0.366720
	C3686	C	0.843957	0.966410	0.021267
	O3687	O	0.815896	0.952477	0.015128
	O3688	O	0.872006	0.980318	0.027432
	C3689	C	0.496107	0.169182	0.535169
	O3690	O	0.478198	0.176829	0.521887
	O3691	O	0.514002	0.161509	0.548477
	C3692	C	0.155672	0.015290	0.410448
	O3693	O	0.131690	0.007774	0.394423
	O3694	O	0.179654	0.022805	0.426500
	C3695	C	0.638842	0.415395	0.311774
	O3696	O	0.637296	0.432317	0.333666
	O3697	O	0.640367	0.398473	0.289856
	C3698	C	0.695035	0.416031	0.576561
	O3699	O	0.701915	0.424141	0.606302
	O3700	O	0.688164	0.407897	0.546820
	C3701	C	0.988311	0.274100	0.931792
	O3702	O	0.961425	0.267836	0.925246
	O3703	O	1.015208	0.280389	0.938365
	C3704	C	0.233598	0.770627	0.567625
	O3705	O	0.251379	0.781887	0.591689
	O3706	O	0.215838	0.759366	0.543588
	C3707	C	0.783902	0.207450	0.742321
	O3708	O	0.810983	0.212227	0.741207
	O3709	O	0.756809	0.202648	0.743435
	C3710	C	0.864428	0.841650	0.553094
	O3711	O	0.851623	0.843830	0.527102
	O3712	O	0.877212	0.839471	0.579060
	C3713	C	0.990884	0.738235	0.614015
	O3714	O	0.999631	0.741168	0.583840
	O3715	O	0.982116	0.735301	0.644190
	C3716	C	0.893982	0.799302	0.131782
	O3717	O	0.879407	0.800761	0.156933
	O3718	O	0.908558	0.797843	0.106605
	C3719	C	0.919059	0.742328	0.062632
	O3720	O	0.919391	0.727766	0.088326
	O3721	O	0.918694	0.756866	0.036911
	C3722	C	0.540209	0.432027	0.571428
	O3723	O	0.547844	0.447580	0.597475
	O3724	O	0.532562	0.416449	0.545381
	C3725	C	0.248962	0.993437	0.418406
	O3726	O	0.247039	1.014069	0.433779
	O3727	O	0.250851	0.972779	0.403033
	C3728	C	0.293326	0.384518	0.318266
	O3729	O	0.285251	0.382202	0.288253
	O3730	O	0.301391	0.386859	0.348251
	C3731	C	0.143640	0.776147	0.193138
	O3732	O	0.129560	0.747826	0.189498
	O3733	O	0.157743	0.804468	0.196777
	C3734	C	0.596131	0.823834	0.316636
	O3735	O	0.568008	0.807209	0.311992
	O3736	O	0.624255	0.840459	0.321280
	C3737	C	0.135917	0.984872	0.723119
	O3738	O	0.118720	0.957402	0.716546
	O3739	O	0.153126	1.012367	0.729691
	C3740	C	0.756489	0.158635	0.587371
	O3741	O	0.753724	0.134060	0.576724
	O3742	O	0.759288	0.183236	0.597991
	C3743	C	0.542269	0.115329	0.452465
	O3744	O	0.523500	0.114945	0.473976
	O3745	O	0.561047	0.115689	0.430981
	C3746	C	0.754293	0.995608	0.057716
	O3747	O	0.743070	0.976689	0.034738
	O3748	O	0.765493	1.014526	0.080721
	C3749	C	0.941462	0.561022	0.208320
	O3750	O	0.949935	0.565557	0.238224
	O3751	O	0.932967	0.556487	0.178444
	C3752	C	0.118755	0.879055	0.651741
	O3753	O	0.107028	0.883079	0.625857
	O3754	O	0.130482	0.875030	0.677652
	C3755	C	0.218705	0.118145	0.123933
	O3756	O	0.201493	0.126364	0.138165
	O3757	O	0.235926	0.109901	0.109728
	C3758	C	0.569625	0.287343	0.453823
	O3759	O	0.572500	0.281578	0.423838
	O3760	O	0.566738	0.293083	0.483808
	C3761	C	0.960426	0.873313	0.217419
	O3762	O	0.981283	0.897274	0.203757
	O3763	O	0.939578	0.849328	0.231054
	C3764	C	0.984242	0.573073	0.931303
	O3765	O	0.998607	0.574454	0.904659
	O3766	O	0.969856	0.571693	0.957947
	C3767	C	0.337554	0.476773	0.638786
	O3768	O	0.352688	0.473453	0.615428
	O3769	O	0.322399	0.480093	0.662116
	C3770	C	0.429763	0.431171	0.507574
	O3771	O	0.443055	0.430830	0.533974
	O3772	O	0.416470	0.431512	0.481201
	C3773	C	0.183785	0.195317	0.818126
	O3774	O	0.181411	0.169370	0.820950
	O3775	O	0.186171	0.221289	0.815274
	C3776	C	0.624288	0.721713	0.313350
	O3777	O	0.628926	0.727563	0.343932
	O3778	O	0.619659	0.715838	0.282767
	C3779	C	0.511285	0.861547	0.806365
	O3780	O	0.490035	0.837524	0.819457
	O3781	O	0.532524	0.885594	0.793274
	C3782	C	0.679496	0.489173	0.245394
	O3783	O	0.688184	0.485991	0.216740
	O3784	O	0.670841	0.492380	0.274048
	C3785	C	0.768055	0.211934	0.020099
	O3786	O	0.786177	0.215993	0.043429
	O3787	O	0.749945	0.207900	-0.003259
	C3788	C	0.475914	0.983146	0.393907
	O3789	O	0.493972	1.007556	0.407732
	O3790	O	0.457878	0.958737	0.380083
	C3791	C	0.883944	0.118165	0.535522
	O3792	O	0.904340	0.142158	0.548070
	O3793	O	0.863548	0.094172	0.522946
	C3794	C	0.754239	0.860121	0.309384
	O3795	O	0.735266	0.856556	0.287167
	O3796	O	0.773190	0.863687	0.331601
	C3797	C	0.578352	0.962108	0.790395
	O3798	O	0.592937	0.962193	0.764457
	O3799	O	0.563779	0.962048	0.816306
	C3800	C	0.022072	0.593018	0.307646
	O3801	O	0.031478	0.605521	0.279209
	O3802	O	0.012688	0.580515	0.336083
	C3803	C	0.421394	0.247808	0.935785
	O3804	O	0.445099	0.258052	0.917424
	O3805	O	0.397701	0.237590	0.954145
	C3806	C	0.335040	0.934415	0.270844
	O3807	O	0.363607	0.948667	0.266661
	O3808	O	0.306440	0.920139	0.275026
	C3809	C	0.787453	0.873926	0.869214
	O3810	O	0.796481	0.898713	0.883854
	O3811	O	0.778425	0.849140	0.854602
	C3812	C	0.323069	0.575632	0.292463
	O3813	O	0.314961	0.556696	0.316500
	O3814	O	0.331189	0.594593	0.268426
	C3815	C	0.913251	0.798356	0.575936
	O3816	O	0.931690	0.799639	0.597773
	O3817	O	0.894798	0.797048	0.554127
	C3818	C	0.119211	0.090753	0.152967
	O3819	O	0.122538	0.080170	0.180345
	O3820	O	0.115873	0.101312	0.125590
	C3821	C	0.697020	0.767873	0.233498
	O3822	O	0.705044	0.765393	0.204246
	O3823	O	0.688986	0.770377	0.262777
	C3824	C	0.313625	0.921950	0.580608
	O3825	O	0.337301	0.919361	0.581912
	O3826	O	0.289961	0.924565	0.579277
	C3827	C	0.756215	0.973672	0.721652
	O3828	O	0.769047	1.001998	0.725047
	O3829	O	0.743383	0.945346	0.718230
	C3830	C	0.127911	0.909622	0.767254
	O3831	O	0.155474	0.925506	0.758128
	O3832	O	0.100347	0.893737	0.776407
	C3833	C	0.558242	0.555073	0.840995
	O3834	O	0.552531	0.574306	0.827279
	O3835	O	0.563931	0.535839	0.854738
	C3836	C	0.461677	0.141721	0.832005
	O3837	O	0.438828	0.117228	0.841755
	O3838	O	0.484548	0.166215	0.822227
	C3839	C	0.780188	0.699206	0.389344
	O3840	O	0.806839	0.704871	0.396297
	O3841	O	0.753570	0.693567	0.382391
	C3842	C	0.073878	0.393003	0.128170
	O3843	O	0.082886	0.419799	0.117849
	O3844	O	0.064847	0.366207	0.138491
	C3845	C	0.480518	0.650798	0.350532
	O3846	O	0.505387	0.655367	0.362646
	O3847	O	0.455615	0.646204	0.338419
	C3848	C	0.274787	0.164786	0.651252
	O3849	O	0.261846	0.137409	0.661084
	O3850	O	0.287716	0.192138	0.641420
