data_Molecule from CHK

_cell_length_a		34.218617
_cell_length_b		34.220014
_cell_length_c		36.933592
_cell_angle_alpha	89.988261
_cell_angle_beta	89.987104
_cell_angle_gamma	119.951878
_symmetry_space_group_name_H-M	'P 1'
_symmetry_Int_Tables_number		1

loop_
	_symmetry_equiv_pos_as_xyz
	x,y,z

loop_
	_atom_site_label
	_atom_site_type_symbol
	_atom_site_fract_x
	_atom_site_fract_y
	_atom_site_fract_z
	C0	C	0.117191	-0.035164	0.150594
	C1	C	0.158213	-0.034868	0.149632
	C2	C	0.195720	0.000127	0.166525
	C3	C	0.193255	0.035145	0.183481
	C4	C	0.152546	0.035486	0.182652
	C5	C	0.114074	0.000174	0.166652
	H6	H	0.222986	0.061780	0.196265
	H7	H	0.082524	0.000187	0.166697
	H8	H	0.161260	-0.061538	0.136809
	C9	C	0.117332	0.135612	0.012215
	C10	C	0.144463	0.178804	0.025604
	C11	C	0.188786	0.205473	0.013249
	C12	C	0.205442	0.188845	-0.013019
	C13	C	0.178977	0.144363	-0.025049
	C14	C	0.135324	0.117616	-0.012414
	C15	C	0.117524	0.188569	0.052267
	C16	C	0.070932	0.117501	0.028233
	N17	N	0.072907	0.151609	0.051410
	O18	O	0.037504	0.082150	0.022705
	O19	O	0.130017	0.220950	0.071362
	C20	C	0.252919	0.224865	-0.021817
	C21	C	0.224848	0.252894	0.022124
	N22	N	0.262528	0.262525	0.000151
	O23	O	0.223950	0.278856	0.043365
	O24	O	0.278928	0.223955	-0.043012
	C25	C	0.117321	0.071112	-0.028182
	C26	C	0.188529	0.117596	-0.052039
	N27	N	0.151481	0.073027	-0.051280
	O28	O	0.220833	0.130152	-0.071253
	O29	O	0.081996	0.037679	-0.022565
	C30	C	0.382517	0.018032	0.154358
	C31	C	0.355434	0.034225	0.141022
	C32	C	0.311067	0.016551	0.153293
	C33	C	0.294361	-0.016829	0.179468
	C34	C	0.320769	-0.034996	0.191408
	C35	C	0.364257	-0.018465	0.178486
	C36	C	0.382510	0.071181	0.114613
	C37	C	0.428977	0.046374	0.138479
	N38	N	0.427121	0.078756	0.115514
	O39	O	0.462365	0.044308	0.143963
	O40	O	0.370113	0.091301	0.095664
	C41	C	0.246949	-0.028097	0.188376
	C42	C	0.275053	0.028069	0.144507
	N43	N	0.237380	0.000069	0.166489
	O44	O	0.275972	0.054991	0.123314
	O45	O	0.220955	-0.054967	0.209589
	C46	C	0.382490	-0.046582	0.194680
	C47	C	0.311192	-0.071321	0.218393
	N48	N	0.348305	-0.078799	0.217754
	O49	O	0.278825	-0.091098	0.237533
	O50	O	0.417981	-0.044488	0.189336
	C51	C	-0.018262	0.364595	0.071346
	C52	C	-0.034334	0.321357	0.058037
	C53	C	-0.016674	0.294678	0.070423
	C54	C	0.016629	0.311341	0.096644
	C55	C	0.034662	0.355867	0.108585
	C56	C	0.017749	0.382624	0.095919
	C57	C	-0.071052	0.311556	0.031409
	C58	C	-0.046560	0.382710	0.055311
	N59	N	-0.078713	0.348548	0.032214
	O60	O	-0.044628	0.418102	0.060772
	O61	O	-0.090948	0.279129	0.012370
	C62	C	0.028092	0.275300	0.105484
	C63	C	-0.028033	0.247222	0.061613
	N64	N	0.000027	0.237598	0.083580
	O65	O	-0.054900	0.221233	0.040416
	O66	O	0.055022	0.276225	0.126661
	C67	C	0.046278	0.429174	0.111578
	C68	C	0.071028	0.382689	0.135486
	N69	N	0.078558	0.427282	0.134636
	O70	O	0.090809	0.370162	0.154700
	O71	O	0.044385	0.462621	0.105912
	C72	C	0.382653	0.347434	0.016156
	C73	C	0.341663	0.306735	0.017108
	C74	C	0.304169	0.304198	0.000118
	C75	C	0.306616	0.341629	-0.016926
	C76	C	0.347284	0.382656	-0.016084
	C77	C	0.385745	0.385838	0.000012
	H78	H	0.276896	0.338508	-0.029790
	H79	H	0.417269	0.417381	-0.000024
	H80	H	0.338628	0.277059	0.030000
	C81	C	0.035374	0.152711	0.067472
	C82	C	0.035064	0.193432	0.066619
	C83	C	0.000055	0.195925	0.083581
	C84	C	-0.034960	0.158434	0.100505
	C85	C	-0.035296	0.117393	0.099555
	C86	C	0.000033	0.114252	0.083488
	H87	H	-0.061609	0.161512	0.113342
	H88	H	0.000022	0.082691	0.083442
	H89	H	0.061719	0.223150	0.053814
	C90	C	0.117191	-0.035164	0.400594
	C91	C	0.158213	-0.034868	0.399632
	C92	C	0.195720	0.000127	0.416525
	C93	C	0.193255	0.035145	0.433481
	C94	C	0.152546	0.035486	0.432652
	C95	C	0.114074	0.000174	0.416652
	H96	H	0.222986	0.061780	0.446265
	H97	H	0.082524	0.000187	0.416697
	H98	H	0.161260	-0.061538	0.386809
	C99	C	0.117332	0.135612	0.262215
	C100	C	0.144463	0.178804	0.275604
	C101	C	0.188786	0.205473	0.263249
	C102	C	0.205442	0.188845	0.236981
	C103	C	0.178977	0.144363	0.224951
	C104	C	0.135324	0.117616	0.237586
	C105	C	0.117524	0.188569	0.302267
	C106	C	0.070932	0.117501	0.278233
	N107	N	0.072907	0.151609	0.301410
	O108	O	0.037504	0.082150	0.272705
	O109	O	0.130017	0.220950	0.321362
	C110	C	0.252919	0.224865	0.228183
	C111	C	0.224848	0.252894	0.272124
	N112	N	0.262528	0.262525	0.250151
	O113	O	0.223950	0.278856	0.293365
	O114	O	0.278928	0.223955	0.206988
	C115	C	0.117321	0.071112	0.221818
	C116	C	0.188529	0.117596	0.197961
	N117	N	0.151481	0.073027	0.198720
	O118	O	0.220833	0.130152	0.178747
	O119	O	0.081996	0.037679	0.227435
	C120	C	0.382517	0.018032	0.404358
	C121	C	0.355434	0.034225	0.391022
	C122	C	0.311067	0.016551	0.403293
	C123	C	0.294361	-0.016829	0.429468
	C124	C	0.320769	-0.034996	0.441408
	C125	C	0.364257	-0.018465	0.428486
	C126	C	0.382510	0.071181	0.364613
	C127	C	0.428977	0.046374	0.388479
	N128	N	0.427121	0.078756	0.365514
	O129	O	0.462365	0.044308	0.393963
	O130	O	0.370113	0.091301	0.345664
	C131	C	0.246949	-0.028097	0.438376
	C132	C	0.275053	0.028069	0.394507
	N133	N	0.237380	0.000069	0.416489
	O134	O	0.275972	0.054991	0.373314
	O135	O	0.220955	-0.054967	0.459589
	C136	C	0.382490	-0.046582	0.444680
	C137	C	0.311192	-0.071321	0.468393
	N138	N	0.348305	-0.078799	0.467754
	O139	O	0.278825	-0.091098	0.487533
	O140	O	0.417981	-0.044488	0.439336
	C141	C	-0.018262	0.364595	0.321346
	C142	C	-0.034334	0.321357	0.308037
	C143	C	-0.016674	0.294678	0.320423
	C144	C	0.016629	0.311341	0.346644
	C145	C	0.034662	0.355867	0.358585
	C146	C	0.017749	0.382624	0.345919
	C147	C	-0.071052	0.311556	0.281409
	C148	C	-0.046560	0.382710	0.305311
	N149	N	-0.078713	0.348548	0.282214
	O150	O	-0.044628	0.418102	0.310772
	O151	O	-0.090948	0.279129	0.262370
	C152	C	0.028092	0.275300	0.355484
	C153	C	-0.028033	0.247222	0.311613
	N154	N	0.000027	0.237598	0.333580
	O155	O	-0.054900	0.221233	0.290416
	O156	O	0.055022	0.276225	0.376661
	C157	C	0.046278	0.429174	0.361578
	C158	C	0.071028	0.382689	0.385486
	N159	N	0.078558	0.427282	0.384636
	O160	O	0.090809	0.370162	0.404700
	O161	O	0.044385	0.462621	0.355912
	C162	C	0.382653	0.347434	0.266156
	C163	C	0.341663	0.306735	0.267108
	C164	C	0.304169	0.304198	0.250118
	C165	C	0.306616	0.341629	0.233074
	C166	C	0.347284	0.382656	0.233916
	C167	C	0.385745	0.385838	0.250012
	H168	H	0.276896	0.338508	0.220210
	H169	H	0.417269	0.417381	0.249976
	H170	H	0.338628	0.277059	0.280000
	C171	C	0.035374	0.152711	0.317472
	C172	C	0.035064	0.193432	0.316619
	C173	C	0.000055	0.195925	0.333581
	C174	C	-0.034960	0.158434	0.350505
	C175	C	-0.035296	0.117393	0.349555
	C176	C	0.000033	0.114252	0.333488
	H177	H	-0.061609	0.161512	0.363342
	H178	H	0.000022	0.082691	0.333442
	H179	H	0.061719	0.223150	0.303814
	C180	C	0.117191	-0.035164	0.650594
	C181	C	0.158213	-0.034868	0.649632
	C182	C	0.195720	0.000127	0.666525
	C183	C	0.193255	0.035145	0.683481
	C184	C	0.152546	0.035486	0.682652
	C185	C	0.114074	0.000174	0.666652
	H186	H	0.222986	0.061780	0.696265
	H187	H	0.082524	0.000187	0.666697
	H188	H	0.161260	-0.061538	0.636809
	C189	C	0.117332	0.135612	0.512215
	C190	C	0.144463	0.178804	0.525604
	C191	C	0.188786	0.205473	0.513249
	C192	C	0.205442	0.188845	0.486981
	C193	C	0.178977	0.144363	0.474951
	C194	C	0.135324	0.117616	0.487586
	C195	C	0.117524	0.188569	0.552267
	C196	C	0.070932	0.117501	0.528233
	N197	N	0.072907	0.151609	0.551410
	O198	O	0.037504	0.082150	0.522705
	O199	O	0.130017	0.220950	0.571362
	C200	C	0.252919	0.224865	0.478183
	C201	C	0.224848	0.252894	0.522124
	N202	N	0.262528	0.262525	0.500151
	O203	O	0.223950	0.278856	0.543365
	O204	O	0.278928	0.223955	0.456988
	C205	C	0.117321	0.071112	0.471818
	C206	C	0.188529	0.117596	0.447961
	N207	N	0.151481	0.073027	0.448720
	O208	O	0.220833	0.130152	0.428747
	O209	O	0.081996	0.037679	0.477435
	C210	C	0.382517	0.018032	0.654358
	C211	C	0.355434	0.034225	0.641022
	C212	C	0.311067	0.016551	0.653293
	C213	C	0.294361	-0.016829	0.679468
	C214	C	0.320769	-0.034996	0.691408
	C215	C	0.364257	-0.018465	0.678486
	C216	C	0.382510	0.071181	0.614613
	C217	C	0.428977	0.046374	0.638479
	N218	N	0.427121	0.078756	0.615514
	O219	O	0.462365	0.044308	0.643963
	O220	O	0.370113	0.091301	0.595664
	C221	C	0.246949	-0.028097	0.688376
	C222	C	0.275053	0.028069	0.644507
	N223	N	0.237380	0.000069	0.666489
	O224	O	0.275972	0.054991	0.623314
	O225	O	0.220955	-0.054967	0.709589
	C226	C	0.382490	-0.046582	0.694680
	C227	C	0.311192	-0.071321	0.718393
	N228	N	0.348305	-0.078799	0.717754
	O229	O	0.278825	-0.091098	0.737533
	O230	O	0.417981	-0.044488	0.689336
	C231	C	-0.018262	0.364595	0.571346
	C232	C	-0.034334	0.321357	0.558037
	C233	C	-0.016674	0.294678	0.570423
	C234	C	0.016629	0.311341	0.596644
	C235	C	0.034662	0.355867	0.608585
	C236	C	0.017749	0.382624	0.595919
	C237	C	-0.071052	0.311556	0.531409
	C238	C	-0.046560	0.382710	0.555311
	N239	N	-0.078713	0.348548	0.532214
	O240	O	-0.044628	0.418102	0.560772
	O241	O	-0.090948	0.279129	0.512370
	C242	C	0.028092	0.275300	0.605484
	C243	C	-0.028033	0.247222	0.561613
	N244	N	0.000027	0.237598	0.583580
	O245	O	-0.054900	0.221233	0.540416
	O246	O	0.055022	0.276225	0.626661
	C247	C	0.046278	0.429174	0.611578
	C248	C	0.071028	0.382689	0.635486
	N249	N	0.078558	0.427282	0.634636
	O250	O	0.090809	0.370162	0.654700
	O251	O	0.044385	0.462621	0.605912
	C252	C	0.382653	0.347434	0.516156
	C253	C	0.341663	0.306735	0.517108
	C254	C	0.304169	0.304198	0.500118
	C255	C	0.306616	0.341629	0.483074
	C256	C	0.347284	0.382656	0.483916
	C257	C	0.385745	0.385838	0.500012
	H258	H	0.276896	0.338508	0.470210
	H259	H	0.417269	0.417381	0.499976
	H260	H	0.338628	0.277059	0.530000
	C261	C	0.035374	0.152711	0.567472
	C262	C	0.035064	0.193432	0.566619
	C263	C	0.000055	0.195925	0.583581
	C264	C	-0.034960	0.158434	0.600505
	C265	C	-0.035296	0.117393	0.599555
	C266	C	0.000033	0.114252	0.583488
	H267	H	-0.061609	0.161512	0.613342
	H268	H	0.000022	0.082691	0.583442
	H269	H	0.061719	0.223150	0.553814
	C270	C	0.117191	-0.035164	0.900594
	C271	C	0.158213	-0.034868	0.899632
	C272	C	0.195720	0.000127	0.916525
	C273	C	0.193255	0.035145	0.933481
	C274	C	0.152546	0.035486	0.932652
	C275	C	0.114074	0.000174	0.916652
	H276	H	0.222986	0.061780	0.946265
	H277	H	0.082524	0.000187	0.916697
	H278	H	0.161260	-0.061538	0.886809
	C279	C	0.117332	0.135612	0.762215
	C280	C	0.144463	0.178804	0.775604
	C281	C	0.188786	0.205473	0.763249
	C282	C	0.205442	0.188845	0.736981
	C283	C	0.178977	0.144363	0.724951
	C284	C	0.135324	0.117616	0.737586
	C285	C	0.117524	0.188569	0.802267
	C286	C	0.070932	0.117501	0.778233
	N287	N	0.072907	0.151609	0.801410
	O288	O	0.037504	0.082150	0.772705
	O289	O	0.130017	0.220950	0.821362
	C290	C	0.252919	0.224865	0.728183
	C291	C	0.224848	0.252894	0.772124
	N292	N	0.262528	0.262525	0.750151
	O293	O	0.223950	0.278856	0.793365
	O294	O	0.278928	0.223955	0.706988
	C295	C	0.117321	0.071112	0.721818
	C296	C	0.188529	0.117596	0.697961
	N297	N	0.151481	0.073027	0.698720
	O298	O	0.220833	0.130152	0.678747
	O299	O	0.081996	0.037679	0.727435
	C300	C	0.382517	0.018032	0.904358
	C301	C	0.355434	0.034225	0.891022
	C302	C	0.311067	0.016551	0.903293
	C303	C	0.294361	-0.016829	0.929468
	C304	C	0.320769	-0.034996	0.941408
	C305	C	0.364257	-0.018465	0.928486
	C306	C	0.382510	0.071181	0.864613
	C307	C	0.428977	0.046374	0.888479
	N308	N	0.427121	0.078756	0.865514
	O309	O	0.462365	0.044308	0.893963
	O310	O	0.370113	0.091301	0.845664
	C311	C	0.246949	-0.028097	0.938376
	C312	C	0.275053	0.028069	0.894507
	N313	N	0.237380	0.000069	0.916489
	O314	O	0.275972	0.054991	0.873314
	O315	O	0.220955	-0.054967	0.959589
	C316	C	0.382490	-0.046582	0.944680
	C317	C	0.311192	-0.071321	0.968393
	N318	N	0.348305	-0.078799	0.967754
	O319	O	0.278825	-0.091098	0.987533
	O320	O	0.417981	-0.044488	0.939336
	C321	C	-0.018262	0.364595	0.821346
	C322	C	-0.034334	0.321357	0.808037
	C323	C	-0.016674	0.294678	0.820423
	C324	C	0.016629	0.311341	0.846644
	C325	C	0.034662	0.355867	0.858585
	C326	C	0.017749	0.382624	0.845919
	C327	C	-0.071052	0.311556	0.781409
	C328	C	-0.046560	0.382710	0.805311
	N329	N	-0.078713	0.348548	0.782214
	O330	O	-0.044628	0.418102	0.810772
	O331	O	-0.090948	0.279129	0.762370
	C332	C	0.028092	0.275300	0.855484
	C333	C	-0.028033	0.247222	0.811613
	N334	N	0.000027	0.237598	0.833580
	O335	O	-0.054900	0.221233	0.790416
	O336	O	0.055022	0.276225	0.876661
	C337	C	0.046278	0.429174	0.861578
	C338	C	0.071028	0.382689	0.885486
	N339	N	0.078558	0.427282	0.884636
	O340	O	0.090809	0.370162	0.904700
	O341	O	0.044385	0.462621	0.855912
	C342	C	0.382653	0.347434	0.766156
	C343	C	0.341663	0.306735	0.767108
	C344	C	0.304169	0.304198	0.750118
	C345	C	0.306616	0.341629	0.733074
	C346	C	0.347284	0.382656	0.733916
	C347	C	0.385745	0.385838	0.750012
	H348	H	0.276896	0.338508	0.720210
	H349	H	0.417269	0.417381	0.749976
	H350	H	0.338628	0.277059	0.780000
	C351	C	0.035374	0.152711	0.817472
	C352	C	0.035064	0.193432	0.816619
	C353	C	0.000055	0.195925	0.833581
	C354	C	-0.034960	0.158434	0.850505
	C355	C	-0.035296	0.117393	0.849555
	C356	C	0.000033	0.114252	0.833488
	H357	H	-0.061609	0.161512	0.863342
	H358	H	0.000022	0.082691	0.833442
	H359	H	0.061719	0.223150	0.803814
	C360	C	0.117191	0.464836	0.150594
	C361	C	0.158213	0.465132	0.149632
	C362	C	0.195720	0.500127	0.166525
	C363	C	0.193255	0.535145	0.183481
	C364	C	0.152546	0.535486	0.182652
	C365	C	0.114074	0.500174	0.166652
	H366	H	0.222986	0.561780	0.196265
	H367	H	0.082524	0.500187	0.166697
	H368	H	0.161260	0.438462	0.136809
	C369	C	0.117332	0.635612	0.012215
	C370	C	0.144463	0.678804	0.025604
	C371	C	0.188786	0.705473	0.013249
	C372	C	0.205442	0.688845	-0.013019
	C373	C	0.178977	0.644363	-0.025049
	C374	C	0.135324	0.617616	-0.012414
	C375	C	0.117524	0.688569	0.052267
	C376	C	0.070932	0.617501	0.028233
	N377	N	0.072907	0.651609	0.051410
	O378	O	0.037504	0.582150	0.022705
	O379	O	0.130017	0.720950	0.071362
	C380	C	0.252919	0.724865	-0.021817
	C381	C	0.224848	0.752894	0.022124
	N382	N	0.262528	0.762525	0.000151
	O383	O	0.223950	0.778856	0.043365
	O384	O	0.278928	0.723955	-0.043012
	C385	C	0.117321	0.571112	-0.028182
	C386	C	0.188529	0.617596	-0.052039
	N387	N	0.151481	0.573027	-0.051280
	O388	O	0.220833	0.630152	-0.071253
	O389	O	0.081996	0.537679	-0.022565
	C390	C	0.382517	0.518032	0.154358
	C391	C	0.355434	0.534225	0.141022
	C392	C	0.311067	0.516551	0.153293
	C393	C	0.294361	0.483171	0.179468
	C394	C	0.320769	0.465004	0.191408
	C395	C	0.364257	0.481535	0.178486
	C396	C	0.382510	0.571181	0.114613
	C397	C	0.428977	0.546374	0.138479
	N398	N	0.427121	0.578756	0.115514
	O399	O	0.462365	0.544308	0.143963
	O400	O	0.370113	0.591301	0.095664
	C401	C	0.246949	0.471903	0.188376
	C402	C	0.275053	0.528069	0.144507
	N403	N	0.237380	0.500069	0.166489
	O404	O	0.275972	0.554991	0.123314
	O405	O	0.220955	0.445033	0.209589
	C406	C	0.382490	0.453418	0.194680
	C407	C	0.311192	0.428679	0.218393
	N408	N	0.348305	0.421201	0.217754
	O409	O	0.278825	0.408902	0.237533
	O410	O	0.417981	0.455512	0.189336
	C411	C	-0.018262	0.864595	0.071346
	C412	C	-0.034334	0.821357	0.058037
	C413	C	-0.016674	0.794678	0.070423
	C414	C	0.016629	0.811341	0.096644
	C415	C	0.034662	0.855867	0.108585
	C416	C	0.017749	0.882624	0.095919
	C417	C	-0.071052	0.811556	0.031409
	C418	C	-0.046560	0.882710	0.055311
	N419	N	-0.078713	0.848548	0.032214
	O420	O	-0.044628	0.918102	0.060772
	O421	O	-0.090948	0.779129	0.012370
	C422	C	0.028092	0.775300	0.105484
	C423	C	-0.028033	0.747222	0.061613
	N424	N	0.000027	0.737598	0.083580
	O425	O	-0.054900	0.721233	0.040416
	O426	O	0.055022	0.776225	0.126661
	C427	C	0.046278	0.929174	0.111578
	C428	C	0.071028	0.882689	0.135486
	N429	N	0.078558	0.927282	0.134636
	O430	O	0.090809	0.870162	0.154700
	O431	O	0.044385	0.962621	0.105912
	C432	C	0.382653	0.847434	0.016156
	C433	C	0.341663	0.806735	0.017108
	C434	C	0.304169	0.804198	0.000118
	C435	C	0.306616	0.841629	-0.016926
	C436	C	0.347284	0.882656	-0.016084
	C437	C	0.385745	0.885838	0.000012
	H438	H	0.276896	0.838508	-0.029790
	H439	H	0.417269	0.917381	-0.000024
	H440	H	0.338628	0.777059	0.030000
	C441	C	0.035374	0.652711	0.067472
	C442	C	0.035064	0.693432	0.066619
	C443	C	0.000055	0.695925	0.083581
	C444	C	-0.034960	0.658434	0.100505
	C445	C	-0.035296	0.617393	0.099555
	C446	C	0.000033	0.614252	0.083488
	H447	H	-0.061609	0.661512	0.113342
	H448	H	0.000022	0.582691	0.083442
	H449	H	0.061719	0.723150	0.053814
	C450	C	0.117191	0.464836	0.400594
	C451	C	0.158213	0.465132	0.399632
	C452	C	0.195720	0.500127	0.416525
	C453	C	0.193255	0.535145	0.433481
	C454	C	0.152546	0.535486	0.432652
	C455	C	0.114074	0.500174	0.416652
	H456	H	0.222986	0.561780	0.446265
	H457	H	0.082524	0.500187	0.416697
	H458	H	0.161260	0.438462	0.386809
	C459	C	0.117332	0.635612	0.262215
	C460	C	0.144463	0.678804	0.275604
	C461	C	0.188786	0.705473	0.263249
	C462	C	0.205442	0.688845	0.236981
	C463	C	0.178977	0.644363	0.224951
	C464	C	0.135324	0.617616	0.237586
	C465	C	0.117524	0.688569	0.302267
	C466	C	0.070932	0.617501	0.278233
	N467	N	0.072907	0.651609	0.301410
	O468	O	0.037504	0.582150	0.272705
	O469	O	0.130017	0.720950	0.321362
	C470	C	0.252919	0.724865	0.228183
	C471	C	0.224848	0.752894	0.272124
	N472	N	0.262528	0.762525	0.250151
	O473	O	0.223950	0.778856	0.293365
	O474	O	0.278928	0.723955	0.206988
	C475	C	0.117321	0.571112	0.221818
	C476	C	0.188529	0.617596	0.197961
	N477	N	0.151481	0.573027	0.198720
	O478	O	0.220833	0.630152	0.178747
	O479	O	0.081996	0.537679	0.227435
	C480	C	0.382517	0.518032	0.404358
	C481	C	0.355434	0.534225	0.391022
	C482	C	0.311067	0.516551	0.403293
	C483	C	0.294361	0.483171	0.429468
	C484	C	0.320769	0.465004	0.441408
	C485	C	0.364257	0.481535	0.428486
	C486	C	0.382510	0.571181	0.364613
	C487	C	0.428977	0.546374	0.388479
	N488	N	0.427121	0.578756	0.365514
	O489	O	0.462365	0.544308	0.393963
	O490	O	0.370113	0.591301	0.345664
	C491	C	0.246949	0.471903	0.438376
	C492	C	0.275053	0.528069	0.394507
	N493	N	0.237380	0.500069	0.416489
	O494	O	0.275972	0.554991	0.373314
	O495	O	0.220955	0.445033	0.459589
	C496	C	0.382490	0.453418	0.444680
	C497	C	0.311192	0.428679	0.468393
	N498	N	0.348305	0.421201	0.467754
	O499	O	0.278825	0.408902	0.487533
	O500	O	0.417981	0.455512	0.439336
	C501	C	-0.018262	0.864595	0.321346
	C502	C	-0.034334	0.821357	0.308037
	C503	C	-0.016674	0.794678	0.320423
	C504	C	0.016629	0.811341	0.346644
	C505	C	0.034662	0.855867	0.358585
	C506	C	0.017749	0.882624	0.345919
	C507	C	-0.071052	0.811556	0.281409
	C508	C	-0.046560	0.882710	0.305311
	N509	N	-0.078713	0.848548	0.282214
	O510	O	-0.044628	0.918102	0.310772
	O511	O	-0.090948	0.779129	0.262370
	C512	C	0.028092	0.775300	0.355484
	C513	C	-0.028033	0.747222	0.311613
	N514	N	0.000027	0.737598	0.333580
	O515	O	-0.054900	0.721233	0.290416
	O516	O	0.055022	0.776225	0.376661
	C517	C	0.046278	0.929174	0.361578
	C518	C	0.071028	0.882689	0.385486
	N519	N	0.078558	0.927282	0.384636
	O520	O	0.090809	0.870162	0.404700
	O521	O	0.044385	0.962621	0.355912
	C522	C	0.382653	0.847434	0.266156
	C523	C	0.341663	0.806735	0.267108
	C524	C	0.304169	0.804198	0.250118
	C525	C	0.306616	0.841629	0.233074
	C526	C	0.347284	0.882656	0.233916
	C527	C	0.385745	0.885838	0.250012
	H528	H	0.276896	0.838508	0.220210
	H529	H	0.417269	0.917381	0.249976
	H530	H	0.338628	0.777059	0.280000
	C531	C	0.035374	0.652711	0.317472
	C532	C	0.035064	0.693432	0.316619
	C533	C	0.000055	0.695925	0.333581
	C534	C	-0.034960	0.658434	0.350505
	C535	C	-0.035296	0.617393	0.349555
	C536	C	0.000033	0.614252	0.333488
	H537	H	-0.061609	0.661512	0.363342
	H538	H	0.000022	0.582691	0.333442
	H539	H	0.061719	0.723150	0.303814
	C540	C	0.117191	0.464836	0.650594
	C541	C	0.158213	0.465132	0.649632
	C542	C	0.195720	0.500127	0.666525
	C543	C	0.193255	0.535145	0.683481
	C544	C	0.152546	0.535486	0.682652
	C545	C	0.114074	0.500174	0.666652
	H546	H	0.222986	0.561780	0.696265
	H547	H	0.082524	0.500187	0.666697
	H548	H	0.161260	0.438462	0.636809
	C549	C	0.117332	0.635612	0.512215
	C550	C	0.144463	0.678804	0.525604
	C551	C	0.188786	0.705473	0.513249
	C552	C	0.205442	0.688845	0.486981
	C553	C	0.178977	0.644363	0.474951
	C554	C	0.135324	0.617616	0.487586
	C555	C	0.117524	0.688569	0.552267
	C556	C	0.070932	0.617501	0.528233
	N557	N	0.072907	0.651609	0.551410
	O558	O	0.037504	0.582150	0.522705
	O559	O	0.130017	0.720950	0.571362
	C560	C	0.252919	0.724865	0.478183
	C561	C	0.224848	0.752894	0.522124
	N562	N	0.262528	0.762525	0.500151
	O563	O	0.223950	0.778856	0.543365
	O564	O	0.278928	0.723955	0.456988
	C565	C	0.117321	0.571112	0.471818
	C566	C	0.188529	0.617596	0.447961
	N567	N	0.151481	0.573027	0.448720
	O568	O	0.220833	0.630152	0.428747
	O569	O	0.081996	0.537679	0.477435
	C570	C	0.382517	0.518032	0.654358
	C571	C	0.355434	0.534225	0.641022
	C572	C	0.311067	0.516551	0.653293
	C573	C	0.294361	0.483171	0.679468
	C574	C	0.320769	0.465004	0.691408
	C575	C	0.364257	0.481535	0.678486
	C576	C	0.382510	0.571181	0.614613
	C577	C	0.428977	0.546374	0.638479
	N578	N	0.427121	0.578756	0.615514
	O579	O	0.462365	0.544308	0.643963
	O580	O	0.370113	0.591301	0.595664
	C581	C	0.246949	0.471903	0.688376
	C582	C	0.275053	0.528069	0.644507
	N583	N	0.237380	0.500069	0.666489
	O584	O	0.275972	0.554991	0.623314
	O585	O	0.220955	0.445033	0.709589
	C586	C	0.382490	0.453418	0.694680
	C587	C	0.311192	0.428679	0.718393
	N588	N	0.348305	0.421201	0.717754
	O589	O	0.278825	0.408902	0.737533
	O590	O	0.417981	0.455512	0.689336
	C591	C	-0.018262	0.864595	0.571346
	C592	C	-0.034334	0.821357	0.558037
	C593	C	-0.016674	0.794678	0.570423
	C594	C	0.016629	0.811341	0.596644
	C595	C	0.034662	0.855867	0.608585
	C596	C	0.017749	0.882624	0.595919
	C597	C	-0.071052	0.811556	0.531409
	C598	C	-0.046560	0.882710	0.555311
	N599	N	-0.078713	0.848548	0.532214
	O600	O	-0.044628	0.918102	0.560772
	O601	O	-0.090948	0.779129	0.512370
	C602	C	0.028092	0.775300	0.605484
	C603	C	-0.028033	0.747222	0.561613
	N604	N	0.000027	0.737598	0.583580
	O605	O	-0.054900	0.721233	0.540416
	O606	O	0.055022	0.776225	0.626661
	C607	C	0.046278	0.929174	0.611578
	C608	C	0.071028	0.882689	0.635486
	N609	N	0.078558	0.927282	0.634636
	O610	O	0.090809	0.870162	0.654700
	O611	O	0.044385	0.962621	0.605912
	C612	C	0.382653	0.847434	0.516156
	C613	C	0.341663	0.806735	0.517108
	C614	C	0.304169	0.804198	0.500118
	C615	C	0.306616	0.841629	0.483074
	C616	C	0.347284	0.882656	0.483916
	C617	C	0.385745	0.885838	0.500012
	H618	H	0.276896	0.838508	0.470210
	H619	H	0.417269	0.917381	0.499976
	H620	H	0.338628	0.777059	0.530000
	C621	C	0.035374	0.652711	0.567472
	C622	C	0.035064	0.693432	0.566619
	C623	C	0.000055	0.695925	0.583581
	C624	C	-0.034960	0.658434	0.600505
	C625	C	-0.035296	0.617393	0.599555
	C626	C	0.000033	0.614252	0.583488
	H627	H	-0.061609	0.661512	0.613342
	H628	H	0.000022	0.582691	0.583442
	H629	H	0.061719	0.723150	0.553814
	C630	C	0.117191	0.464836	0.900594
	C631	C	0.158213	0.465132	0.899632
	C632	C	0.195720	0.500127	0.916525
	C633	C	0.193255	0.535145	0.933481
	C634	C	0.152546	0.535486	0.932652
	C635	C	0.114074	0.500174	0.916652
	H636	H	0.222986	0.561780	0.946265
	H637	H	0.082524	0.500187	0.916697
	H638	H	0.161260	0.438462	0.886809
	C639	C	0.117332	0.635612	0.762215
	C640	C	0.144463	0.678804	0.775604
	C641	C	0.188786	0.705473	0.763249
	C642	C	0.205442	0.688845	0.736981
	C643	C	0.178977	0.644363	0.724951
	C644	C	0.135324	0.617616	0.737586
	C645	C	0.117524	0.688569	0.802267
	C646	C	0.070932	0.617501	0.778233
	N647	N	0.072907	0.651609	0.801410
	O648	O	0.037504	0.582150	0.772705
	O649	O	0.130017	0.720950	0.821362
	C650	C	0.252919	0.724865	0.728183
	C651	C	0.224848	0.752894	0.772124
	N652	N	0.262528	0.762525	0.750151
	O653	O	0.223950	0.778856	0.793365
	O654	O	0.278928	0.723955	0.706988
	C655	C	0.117321	0.571112	0.721818
	C656	C	0.188529	0.617596	0.697961
	N657	N	0.151481	0.573027	0.698720
	O658	O	0.220833	0.630152	0.678747
	O659	O	0.081996	0.537679	0.727435
	C660	C	0.382517	0.518032	0.904358
	C661	C	0.355434	0.534225	0.891022
	C662	C	0.311067	0.516551	0.903293
	C663	C	0.294361	0.483171	0.929468
	C664	C	0.320769	0.465004	0.941408
	C665	C	0.364257	0.481535	0.928486
	C666	C	0.382510	0.571181	0.864613
	C667	C	0.428977	0.546374	0.888479
	N668	N	0.427121	0.578756	0.865514
	O669	O	0.462365	0.544308	0.893963
	O670	O	0.370113	0.591301	0.845664
	C671	C	0.246949	0.471903	0.938376
	C672	C	0.275053	0.528069	0.894507
	N673	N	0.237380	0.500069	0.916489
	O674	O	0.275972	0.554991	0.873314
	O675	O	0.220955	0.445033	0.959589
	C676	C	0.382490	0.453418	0.944680
	C677	C	0.311192	0.428679	0.968393
	N678	N	0.348305	0.421201	0.967754
	O679	O	0.278825	0.408902	0.987533
	O680	O	0.417981	0.455512	0.939336
	C681	C	-0.018262	0.864595	0.821346
	C682	C	-0.034334	0.821357	0.808037
	C683	C	-0.016674	0.794678	0.820423
	C684	C	0.016629	0.811341	0.846644
	C685	C	0.034662	0.855867	0.858585
	C686	C	0.017749	0.882624	0.845919
	C687	C	-0.071052	0.811556	0.781409
	C688	C	-0.046560	0.882710	0.805311
	N689	N	-0.078713	0.848548	0.782214
	O690	O	-0.044628	0.918102	0.810772
	O691	O	-0.090948	0.779129	0.762370
	C692	C	0.028092	0.775300	0.855484
	C693	C	-0.028033	0.747222	0.811613
	N694	N	0.000027	0.737598	0.833580
	O695	O	-0.054900	0.721233	0.790416
	O696	O	0.055022	0.776225	0.876661
	C697	C	0.046278	0.929174	0.861578
	C698	C	0.071028	0.882689	0.885486
	N699	N	0.078558	0.927282	0.884636
	O700	O	0.090809	0.870162	0.904700
	O701	O	0.044385	0.962621	0.855912
	C702	C	0.382653	0.847434	0.766156
	C703	C	0.341663	0.806735	0.767108
	C704	C	0.304169	0.804198	0.750118
	C705	C	0.306616	0.841629	0.733074
	C706	C	0.347284	0.882656	0.733916
	C707	C	0.385745	0.885838	0.750012
	H708	H	0.276896	0.838508	0.720210
	H709	H	0.417269	0.917381	0.749976
	H710	H	0.338628	0.777059	0.780000
	C711	C	0.035374	0.652711	0.817472
	C712	C	0.035064	0.693432	0.816619
	C713	C	0.000055	0.695925	0.833581
	C714	C	-0.034960	0.658434	0.850505
	C715	C	-0.035296	0.617393	0.849555
	C716	C	0.000033	0.614252	0.833488
	H717	H	-0.061609	0.661512	0.863342
	H718	H	0.000022	0.582691	0.833442
	H719	H	0.061719	0.723150	0.803814
	C720	C	0.617191	-0.035164	0.150594
	C721	C	0.658213	-0.034868	0.149632
	C722	C	0.695720	0.000127	0.166525
	C723	C	0.693255	0.035145	0.183481
	C724	C	0.652546	0.035486	0.182652
	C725	C	0.614074	0.000174	0.166652
	H726	H	0.722986	0.061780	0.196265
	H727	H	0.582524	0.000187	0.166697
	H728	H	0.661260	-0.061538	0.136809
	C729	C	0.617332	0.135612	0.012215
	C730	C	0.644463	0.178804	0.025604
	C731	C	0.688786	0.205473	0.013249
	C732	C	0.705442	0.188845	-0.013019
	C733	C	0.678977	0.144363	-0.025049
	C734	C	0.635324	0.117616	-0.012414
	C735	C	0.617524	0.188569	0.052267
	C736	C	0.570932	0.117501	0.028233
	N737	N	0.572907	0.151609	0.051410
	O738	O	0.537504	0.082150	0.022705
	O739	O	0.630017	0.220950	0.071362
	C740	C	0.752919	0.224865	-0.021817
	C741	C	0.724848	0.252894	0.022124
	N742	N	0.762528	0.262525	0.000151
	O743	O	0.723950	0.278856	0.043365
	O744	O	0.778928	0.223955	-0.043012
	C745	C	0.617321	0.071112	-0.028182
	C746	C	0.688529	0.117596	-0.052039
	N747	N	0.651481	0.073027	-0.051280
	O748	O	0.720833	0.130152	-0.071253
	O749	O	0.581996	0.037679	-0.022565
	C750	C	0.882517	0.018032	0.154358
	C751	C	0.855434	0.034225	0.141022
	C752	C	0.811067	0.016551	0.153293
	C753	C	0.794361	-0.016829	0.179468
	C754	C	0.820769	-0.034996	0.191408
	C755	C	0.864257	-0.018465	0.178486
	C756	C	0.882510	0.071181	0.114613
	C757	C	0.928977	0.046374	0.138479
	N758	N	0.927121	0.078756	0.115514
	O759	O	0.962365	0.044308	0.143963
	O760	O	0.870113	0.091301	0.095664
	C761	C	0.746949	-0.028097	0.188376
	C762	C	0.775053	0.028069	0.144507
	N763	N	0.737380	0.000069	0.166489
	O764	O	0.775972	0.054991	0.123314
	O765	O	0.720955	-0.054967	0.209589
	C766	C	0.882490	-0.046582	0.194680
	C767	C	0.811192	-0.071321	0.218393
	N768	N	0.848305	-0.078799	0.217754
	O769	O	0.778825	-0.091098	0.237533
	O770	O	0.917981	-0.044488	0.189336
	C771	C	0.481738	0.364595	0.071346
	C772	C	0.465666	0.321357	0.058037
	C773	C	0.483326	0.294678	0.070423
	C774	C	0.516629	0.311341	0.096644
	C775	C	0.534662	0.355867	0.108585
	C776	C	0.517749	0.382624	0.095919
	C777	C	0.428948	0.311556	0.031409
	C778	C	0.453440	0.382710	0.055311
	N779	N	0.421287	0.348548	0.032214
	O780	O	0.455372	0.418102	0.060772
	O781	O	0.409052	0.279129	0.012370
	C782	C	0.528092	0.275300	0.105484
	C783	C	0.471967	0.247222	0.061613
	N784	N	0.500027	0.237598	0.083580
	O785	O	0.445100	0.221233	0.040416
	O786	O	0.555022	0.276225	0.126661
	C787	C	0.546278	0.429174	0.111578
	C788	C	0.571028	0.382689	0.135486
	N789	N	0.578558	0.427282	0.134636
	O790	O	0.590809	0.370162	0.154700
	O791	O	0.544385	0.462621	0.105912
	C792	C	0.882653	0.347434	0.016156
	C793	C	0.841663	0.306735	0.017108
	C794	C	0.804169	0.304198	0.000118
	C795	C	0.806616	0.341629	-0.016926
	C796	C	0.847284	0.382656	-0.016084
	C797	C	0.885745	0.385838	0.000012
	H798	H	0.776896	0.338508	-0.029790
	H799	H	0.917269	0.417381	-0.000024
	H800	H	0.838628	0.277059	0.030000
	C801	C	0.535374	0.152711	0.067472
	C802	C	0.535064	0.193432	0.066619
	C803	C	0.500055	0.195925	0.083581
	C804	C	0.465040	0.158434	0.100505
	C805	C	0.464704	0.117393	0.099555
	C806	C	0.500033	0.114252	0.083488
	H807	H	0.438391	0.161512	0.113342
	H808	H	0.500022	0.082691	0.083442
	H809	H	0.561719	0.223150	0.053814
	C810	C	0.617191	-0.035164	0.400594
	C811	C	0.658213	-0.034868	0.399632
	C812	C	0.695720	0.000127	0.416525
	C813	C	0.693255	0.035145	0.433481
	C814	C	0.652546	0.035486	0.432652
	C815	C	0.614074	0.000174	0.416652
	H816	H	0.722986	0.061780	0.446265
	H817	H	0.582524	0.000187	0.416697
	H818	H	0.661260	-0.061538	0.386809
	C819	C	0.617332	0.135612	0.262215
	C820	C	0.644463	0.178804	0.275604
	C821	C	0.688786	0.205473	0.263249
	C822	C	0.705442	0.188845	0.236981
	C823	C	0.678977	0.144363	0.224951
	C824	C	0.635324	0.117616	0.237586
	C825	C	0.617524	0.188569	0.302267
	C826	C	0.570932	0.117501	0.278233
	N827	N	0.572907	0.151609	0.301410
	O828	O	0.537504	0.082150	0.272705
	O829	O	0.630017	0.220950	0.321362
	C830	C	0.752919	0.224865	0.228183
	C831	C	0.724848	0.252894	0.272124
	N832	N	0.762528	0.262525	0.250151
	O833	O	0.723950	0.278856	0.293365
	O834	O	0.778928	0.223955	0.206988
	C835	C	0.617321	0.071112	0.221818
	C836	C	0.688529	0.117596	0.197961
	N837	N	0.651481	0.073027	0.198720
	O838	O	0.720833	0.130152	0.178747
	O839	O	0.581996	0.037679	0.227435
	C840	C	0.882517	0.018032	0.404358
	C841	C	0.855434	0.034225	0.391022
	C842	C	0.811067	0.016551	0.403293
	C843	C	0.794361	-0.016829	0.429468
	C844	C	0.820769	-0.034996	0.441408
	C845	C	0.864257	-0.018465	0.428486
	C846	C	0.882510	0.071181	0.364613
	C847	C	0.928977	0.046374	0.388479
	N848	N	0.927121	0.078756	0.365514
	O849	O	0.962365	0.044308	0.393963
	O850	O	0.870113	0.091301	0.345664
	C851	C	0.746949	-0.028097	0.438376
	C852	C	0.775053	0.028069	0.394507
	N853	N	0.737380	0.000069	0.416489
	O854	O	0.775972	0.054991	0.373314
	O855	O	0.720955	-0.054967	0.459589
	C856	C	0.882490	-0.046582	0.444680
	C857	C	0.811192	-0.071321	0.468393
	N858	N	0.848305	-0.078799	0.467754
	O859	O	0.778825	-0.091098	0.487533
	O860	O	0.917981	-0.044488	0.439336
	C861	C	0.481738	0.364595	0.321346
	C862	C	0.465666	0.321357	0.308037
	C863	C	0.483326	0.294678	0.320423
	C864	C	0.516629	0.311341	0.346644
	C865	C	0.534662	0.355867	0.358585
	C866	C	0.517749	0.382624	0.345919
	C867	C	0.428948	0.311556	0.281409
	C868	C	0.453440	0.382710	0.305311
	N869	N	0.421287	0.348548	0.282214
	O870	O	0.455372	0.418102	0.310772
	O871	O	0.409052	0.279129	0.262370
	C872	C	0.528092	0.275300	0.355484
	C873	C	0.471967	0.247222	0.311613
	N874	N	0.500027	0.237598	0.333580
	O875	O	0.445100	0.221233	0.290416
	O876	O	0.555022	0.276225	0.376661
	C877	C	0.546278	0.429174	0.361578
	C878	C	0.571028	0.382689	0.385486
	N879	N	0.578558	0.427282	0.384636
	O880	O	0.590809	0.370162	0.404700
	O881	O	0.544385	0.462621	0.355912
	C882	C	0.882653	0.347434	0.266156
	C883	C	0.841663	0.306735	0.267108
	C884	C	0.804169	0.304198	0.250118
	C885	C	0.806616	0.341629	0.233074
	C886	C	0.847284	0.382656	0.233916
	C887	C	0.885745	0.385838	0.250012
	H888	H	0.776896	0.338508	0.220210
	H889	H	0.917269	0.417381	0.249976
	H890	H	0.838628	0.277059	0.280000
	C891	C	0.535374	0.152711	0.317472
	C892	C	0.535064	0.193432	0.316619
	C893	C	0.500055	0.195925	0.333581
	C894	C	0.465040	0.158434	0.350505
	C895	C	0.464704	0.117393	0.349555
	C896	C	0.500033	0.114252	0.333488
	H897	H	0.438391	0.161512	0.363342
	H898	H	0.500022	0.082691	0.333442
	H899	H	0.561719	0.223150	0.303814
	C900	C	0.617191	-0.035164	0.650594
	C901	C	0.658213	-0.034868	0.649632
	C902	C	0.695720	0.000127	0.666525
	C903	C	0.693255	0.035145	0.683481
	C904	C	0.652546	0.035486	0.682652
	C905	C	0.614074	0.000174	0.666652
	H906	H	0.722986	0.061780	0.696265
	H907	H	0.582524	0.000187	0.666697
	H908	H	0.661260	-0.061538	0.636809
	C909	C	0.617332	0.135612	0.512215
	C910	C	0.644463	0.178804	0.525604
	C911	C	0.688786	0.205473	0.513249
	C912	C	0.705442	0.188845	0.486981
	C913	C	0.678977	0.144363	0.474951
	C914	C	0.635324	0.117616	0.487586
	C915	C	0.617524	0.188569	0.552267
	C916	C	0.570932	0.117501	0.528233
	N917	N	0.572907	0.151609	0.551410
	O918	O	0.537504	0.082150	0.522705
	O919	O	0.630017	0.220950	0.571362
	C920	C	0.752919	0.224865	0.478183
	C921	C	0.724848	0.252894	0.522124
	N922	N	0.762528	0.262525	0.500151
	O923	O	0.723950	0.278856	0.543365
	O924	O	0.778928	0.223955	0.456988
	C925	C	0.617321	0.071112	0.471818
	C926	C	0.688529	0.117596	0.447961
	N927	N	0.651481	0.073027	0.448720
	O928	O	0.720833	0.130152	0.428747
	O929	O	0.581996	0.037679	0.477435
	C930	C	0.882517	0.018032	0.654358
	C931	C	0.855434	0.034225	0.641022
	C932	C	0.811067	0.016551	0.653293
	C933	C	0.794361	-0.016829	0.679468
	C934	C	0.820769	-0.034996	0.691408
	C935	C	0.864257	-0.018465	0.678486
	C936	C	0.882510	0.071181	0.614613
	C937	C	0.928977	0.046374	0.638479
	N938	N	0.927121	0.078756	0.615514
	O939	O	0.962365	0.044308	0.643963
	O940	O	0.870113	0.091301	0.595664
	C941	C	0.746949	-0.028097	0.688376
	C942	C	0.775053	0.028069	0.644507
	N943	N	0.737380	0.000069	0.666489
	O944	O	0.775972	0.054991	0.623314
	O945	O	0.720955	-0.054967	0.709589
	C946	C	0.882490	-0.046582	0.694680
	C947	C	0.811192	-0.071321	0.718393
	N948	N	0.848305	-0.078799	0.717754
	O949	O	0.778825	-0.091098	0.737533
	O950	O	0.917981	-0.044488	0.689336
	C951	C	0.481738	0.364595	0.571346
	C952	C	0.465666	0.321357	0.558037
	C953	C	0.483326	0.294678	0.570423
	C954	C	0.516629	0.311341	0.596644
	C955	C	0.534662	0.355867	0.608585
	C956	C	0.517749	0.382624	0.595919
	C957	C	0.428948	0.311556	0.531409
	C958	C	0.453440	0.382710	0.555311
	N959	N	0.421287	0.348548	0.532214
	O960	O	0.455372	0.418102	0.560772
	O961	O	0.409052	0.279129	0.512370
	C962	C	0.528092	0.275300	0.605484
	C963	C	0.471967	0.247222	0.561613
	N964	N	0.500027	0.237598	0.583580
	O965	O	0.445100	0.221233	0.540416
	O966	O	0.555022	0.276225	0.626661
	C967	C	0.546278	0.429174	0.611578
	C968	C	0.571028	0.382689	0.635486
	N969	N	0.578558	0.427282	0.634636
	O970	O	0.590809	0.370162	0.654700
	O971	O	0.544385	0.462621	0.605912
	C972	C	0.882653	0.347434	0.516156
	C973	C	0.841663	0.306735	0.517108
	C974	C	0.804169	0.304198	0.500118
	C975	C	0.806616	0.341629	0.483074
	C976	C	0.847284	0.382656	0.483916
	C977	C	0.885745	0.385838	0.500012
	H978	H	0.776896	0.338508	0.470210
	H979	H	0.917269	0.417381	0.499976
	H980	H	0.838628	0.277059	0.530000
	C981	C	0.535374	0.152711	0.567472
	C982	C	0.535064	0.193432	0.566619
	C983	C	0.500055	0.195925	0.583581
	C984	C	0.465040	0.158434	0.600505
	C985	C	0.464704	0.117393	0.599555
	C986	C	0.500033	0.114252	0.583488
	H987	H	0.438391	0.161512	0.613342
	H988	H	0.500022	0.082691	0.583442
	H989	H	0.561719	0.223150	0.553814
	C990	C	0.617191	-0.035164	0.900594
	C991	C	0.658213	-0.034868	0.899632
	C992	C	0.695720	0.000127	0.916525
	C993	C	0.693255	0.035145	0.933481
	C994	C	0.652546	0.035486	0.932652
	C995	C	0.614074	0.000174	0.916652
	H996	H	0.722986	0.061780	0.946265
	H997	H	0.582524	0.000187	0.916697
	H998	H	0.661260	-0.061538	0.886809
	C999	C	0.617332	0.135612	0.762215
	C1000	C	0.644463	0.178804	0.775604
	C1001	C	0.688786	0.205473	0.763249
	C1002	C	0.705442	0.188845	0.736981
	C1003	C	0.678977	0.144363	0.724951
	C1004	C	0.635324	0.117616	0.737586
	C1005	C	0.617524	0.188569	0.802267
	C1006	C	0.570932	0.117501	0.778233
	N1007	N	0.572907	0.151609	0.801410
	O1008	O	0.537504	0.082150	0.772705
	O1009	O	0.630017	0.220950	0.821362
	C1010	C	0.752919	0.224865	0.728183
	C1011	C	0.724848	0.252894	0.772124
	N1012	N	0.762528	0.262525	0.750151
	O1013	O	0.723950	0.278856	0.793365
	O1014	O	0.778928	0.223955	0.706988
	C1015	C	0.617321	0.071112	0.721818
	C1016	C	0.688529	0.117596	0.697961
	N1017	N	0.651481	0.073027	0.698720
	O1018	O	0.720833	0.130152	0.678747
	O1019	O	0.581996	0.037679	0.727435
	C1020	C	0.882517	0.018032	0.904358
	C1021	C	0.855434	0.034225	0.891022
	C1022	C	0.811067	0.016551	0.903293
	C1023	C	0.794361	-0.016829	0.929468
	C1024	C	0.820769	-0.034996	0.941408
	C1025	C	0.864257	-0.018465	0.928486
	C1026	C	0.882510	0.071181	0.864613
	C1027	C	0.928977	0.046374	0.888479
	N1028	N	0.927121	0.078756	0.865514
	O1029	O	0.962365	0.044308	0.893963
	O1030	O	0.870113	0.091301	0.845664
	C1031	C	0.746949	-0.028097	0.938376
	C1032	C	0.775053	0.028069	0.894507
	N1033	N	0.737380	0.000069	0.916489
	O1034	O	0.775972	0.054991	0.873314
	O1035	O	0.720955	-0.054967	0.959589
	C1036	C	0.882490	-0.046582	0.944680
	C1037	C	0.811192	-0.071321	0.968393
	N1038	N	0.848305	-0.078799	0.967754
	O1039	O	0.778825	-0.091098	0.987533
	O1040	O	0.917981	-0.044488	0.939336
	C1041	C	0.481738	0.364595	0.821346
	C1042	C	0.465666	0.321357	0.808037
	C1043	C	0.483326	0.294678	0.820423
	C1044	C	0.516629	0.311341	0.846644
	C1045	C	0.534662	0.355867	0.858585
	C1046	C	0.517749	0.382624	0.845919
	C1047	C	0.428948	0.311556	0.781409
	C1048	C	0.453440	0.382710	0.805311
	N1049	N	0.421287	0.348548	0.782214
	O1050	O	0.455372	0.418102	0.810772
	O1051	O	0.409052	0.279129	0.762370
	C1052	C	0.528092	0.275300	0.855484
	C1053	C	0.471967	0.247222	0.811613
	N1054	N	0.500027	0.237598	0.833580
	O1055	O	0.445100	0.221233	0.790416
	O1056	O	0.555022	0.276225	0.876661
	C1057	C	0.546278	0.429174	0.861578
	C1058	C	0.571028	0.382689	0.885486
	N1059	N	0.578558	0.427282	0.884636
	O1060	O	0.590809	0.370162	0.904700
	O1061	O	0.544385	0.462621	0.855912
	C1062	C	0.882653	0.347434	0.766156
	C1063	C	0.841663	0.306735	0.767108
	C1064	C	0.804169	0.304198	0.750118
	C1065	C	0.806616	0.341629	0.733074
	C1066	C	0.847284	0.382656	0.733916
	C1067	C	0.885745	0.385838	0.750012
	H1068	H	0.776896	0.338508	0.720210
	H1069	H	0.917269	0.417381	0.749976
	H1070	H	0.838628	0.277059	0.780000
	C1071	C	0.535374	0.152711	0.817472
	C1072	C	0.535064	0.193432	0.816619
	C1073	C	0.500055	0.195925	0.833581
	C1074	C	0.465040	0.158434	0.850505
	C1075	C	0.464704	0.117393	0.849555
	C1076	C	0.500033	0.114252	0.833488
	H1077	H	0.438391	0.161512	0.863342
	H1078	H	0.500022	0.082691	0.833442
	H1079	H	0.561719	0.223150	0.803814
	C1080	C	0.617191	0.464836	0.150594
	C1081	C	0.658213	0.465132	0.149632
	C1082	C	0.695720	0.500127	0.166525
	C1083	C	0.693255	0.535145	0.183481
	C1084	C	0.652546	0.535486	0.182652
	C1085	C	0.614074	0.500174	0.166652
	H1086	H	0.722986	0.561780	0.196265
	H1087	H	0.582524	0.500187	0.166697
	H1088	H	0.661260	0.438462	0.136809
	C1089	C	0.617332	0.635612	0.012215
	C1090	C	0.644463	0.678804	0.025604
	C1091	C	0.688786	0.705473	0.013249
	C1092	C	0.705442	0.688845	-0.013019
	C1093	C	0.678977	0.644363	-0.025049
	C1094	C	0.635324	0.617616	-0.012414
	C1095	C	0.617524	0.688569	0.052267
	C1096	C	0.570932	0.617501	0.028233
	N1097	N	0.572907	0.651609	0.051410
	O1098	O	0.537504	0.582150	0.022705
	O1099	O	0.630017	0.720950	0.071362
	C1100	C	0.752919	0.724865	-0.021817
	C1101	C	0.724848	0.752894	0.022124
	N1102	N	0.762528	0.762525	0.000151
	O1103	O	0.723950	0.778856	0.043365
	O1104	O	0.778928	0.723955	-0.043012
	C1105	C	0.617321	0.571112	-0.028182
	C1106	C	0.688529	0.617596	-0.052039
	N1107	N	0.651481	0.573027	-0.051280
	O1108	O	0.720833	0.630152	-0.071253
	O1109	O	0.581996	0.537679	-0.022565
	C1110	C	0.882517	0.518032	0.154358
	C1111	C	0.855434	0.534225	0.141022
	C1112	C	0.811067	0.516551	0.153293
	C1113	C	0.794361	0.483171	0.179468
	C1114	C	0.820769	0.465004	0.191408
	C1115	C	0.864257	0.481535	0.178486
	C1116	C	0.882510	0.571181	0.114613
	C1117	C	0.928977	0.546374	0.138479
	N1118	N	0.927121	0.578756	0.115514
	O1119	O	0.962365	0.544308	0.143963
	O1120	O	0.870113	0.591301	0.095664
	C1121	C	0.746949	0.471903	0.188376
	C1122	C	0.775053	0.528069	0.144507
	N1123	N	0.737380	0.500069	0.166489
	O1124	O	0.775972	0.554991	0.123314
	O1125	O	0.720955	0.445033	0.209589
	C1126	C	0.882490	0.453418	0.194680
	C1127	C	0.811192	0.428679	0.218393
	N1128	N	0.848305	0.421201	0.217754
	O1129	O	0.778825	0.408902	0.237533
	O1130	O	0.917981	0.455512	0.189336
	C1131	C	0.481738	0.864595	0.071346
	C1132	C	0.465666	0.821357	0.058037
	C1133	C	0.483326	0.794678	0.070423
	C1134	C	0.516629	0.811341	0.096644
	C1135	C	0.534662	0.855867	0.108585
	C1136	C	0.517749	0.882624	0.095919
	C1137	C	0.428948	0.811556	0.031409
	C1138	C	0.453440	0.882710	0.055311
	N1139	N	0.421287	0.848548	0.032214
	O1140	O	0.455372	0.918102	0.060772
	O1141	O	0.409052	0.779129	0.012370
	C1142	C	0.528092	0.775300	0.105484
	C1143	C	0.471967	0.747222	0.061613
	N1144	N	0.500027	0.737598	0.083580
	O1145	O	0.445100	0.721233	0.040416
	O1146	O	0.555022	0.776225	0.126661
	C1147	C	0.546278	0.929174	0.111578
	C1148	C	0.571028	0.882689	0.135486
	N1149	N	0.578558	0.927282	0.134636
	O1150	O	0.590809	0.870162	0.154700
	O1151	O	0.544385	0.962621	0.105912
	C1152	C	0.882653	0.847434	0.016156
	C1153	C	0.841663	0.806735	0.017108
	C1154	C	0.804169	0.804198	0.000118
	C1155	C	0.806616	0.841629	-0.016926
	C1156	C	0.847284	0.882656	-0.016084
	C1157	C	0.885745	0.885838	0.000012
	H1158	H	0.776896	0.838508	-0.029790
	H1159	H	0.917269	0.917381	-0.000024
	H1160	H	0.838628	0.777059	0.030000
	C1161	C	0.535374	0.652711	0.067472
	C1162	C	0.535064	0.693432	0.066619
	C1163	C	0.500055	0.695925	0.083581
	C1164	C	0.465040	0.658434	0.100505
	C1165	C	0.464704	0.617393	0.099555
	C1166	C	0.500033	0.614252	0.083488
	H1167	H	0.438391	0.661512	0.113342
	H1168	H	0.500022	0.582691	0.083442
	H1169	H	0.561719	0.723150	0.053814
	C1170	C	0.617191	0.464836	0.400594
	C1171	C	0.658213	0.465132	0.399632
	C1172	C	0.695720	0.500127	0.416525
	C1173	C	0.693255	0.535145	0.433481
	C1174	C	0.652546	0.535486	0.432652
	C1175	C	0.614074	0.500174	0.416652
	H1176	H	0.722986	0.561780	0.446265
	H1177	H	0.582524	0.500187	0.416697
	H1178	H	0.661260	0.438462	0.386809
	C1179	C	0.617332	0.635612	0.262215
	C1180	C	0.644463	0.678804	0.275604
	C1181	C	0.688786	0.705473	0.263249
	C1182	C	0.705442	0.688845	0.236981
	C1183	C	0.678977	0.644363	0.224951
	C1184	C	0.635324	0.617616	0.237586
	C1185	C	0.617524	0.688569	0.302267
	C1186	C	0.570932	0.617501	0.278233
	N1187	N	0.572907	0.651609	0.301410
	O1188	O	0.537504	0.582150	0.272705
	O1189	O	0.630017	0.720950	0.321362
	C1190	C	0.752919	0.724865	0.228183
	C1191	C	0.724848	0.752894	0.272124
	N1192	N	0.762528	0.762525	0.250151
	O1193	O	0.723950	0.778856	0.293365
	O1194	O	0.778928	0.723955	0.206988
	C1195	C	0.617321	0.571112	0.221818
	C1196	C	0.688529	0.617596	0.197961
	N1197	N	0.651481	0.573027	0.198720
	O1198	O	0.720833	0.630152	0.178747
	O1199	O	0.581996	0.537679	0.227435
	C1200	C	0.882517	0.518032	0.404358
	C1201	C	0.855434	0.534225	0.391022
	C1202	C	0.811067	0.516551	0.403293
	C1203	C	0.794361	0.483171	0.429468
	C1204	C	0.820769	0.465004	0.441408
	C1205	C	0.864257	0.481535	0.428486
	C1206	C	0.882510	0.571181	0.364613
	C1207	C	0.928977	0.546374	0.388479
	N1208	N	0.927121	0.578756	0.365514
	O1209	O	0.962365	0.544308	0.393963
	O1210	O	0.870113	0.591301	0.345664
	C1211	C	0.746949	0.471903	0.438376
	C1212	C	0.775053	0.528069	0.394507
	N1213	N	0.737380	0.500069	0.416489
	O1214	O	0.775972	0.554991	0.373314
	O1215	O	0.720955	0.445033	0.459589
	C1216	C	0.882490	0.453418	0.444680
	C1217	C	0.811192	0.428679	0.468393
	N1218	N	0.848305	0.421201	0.467754
	O1219	O	0.778825	0.408902	0.487533
	O1220	O	0.917981	0.455512	0.439336
	C1221	C	0.481738	0.864595	0.321346
	C1222	C	0.465666	0.821357	0.308037
	C1223	C	0.483326	0.794678	0.320423
	C1224	C	0.516629	0.811341	0.346644
	C1225	C	0.534662	0.855867	0.358585
	C1226	C	0.517749	0.882624	0.345919
	C1227	C	0.428948	0.811556	0.281409
	C1228	C	0.453440	0.882710	0.305311
	N1229	N	0.421287	0.848548	0.282214
	O1230	O	0.455372	0.918102	0.310772
	O1231	O	0.409052	0.779129	0.262370
	C1232	C	0.528092	0.775300	0.355484
	C1233	C	0.471967	0.747222	0.311613
	N1234	N	0.500027	0.737598	0.333580
	O1235	O	0.445100	0.721233	0.290416
	O1236	O	0.555022	0.776225	0.376661
	C1237	C	0.546278	0.929174	0.361578
	C1238	C	0.571028	0.882689	0.385486
	N1239	N	0.578558	0.927282	0.384636
	O1240	O	0.590809	0.870162	0.404700
	O1241	O	0.544385	0.962621	0.355912
	C1242	C	0.882653	0.847434	0.266156
	C1243	C	0.841663	0.806735	0.267108
	C1244	C	0.804169	0.804198	0.250118
	C1245	C	0.806616	0.841629	0.233074
	C1246	C	0.847284	0.882656	0.233916
	C1247	C	0.885745	0.885838	0.250012
	H1248	H	0.776896	0.838508	0.220210
	H1249	H	0.917269	0.917381	0.249976
	H1250	H	0.838628	0.777059	0.280000
	C1251	C	0.535374	0.652711	0.317472
	C1252	C	0.535064	0.693432	0.316619
	C1253	C	0.500055	0.695925	0.333581
	C1254	C	0.465040	0.658434	0.350505
	C1255	C	0.464704	0.617393	0.349555
	C1256	C	0.500033	0.614252	0.333488
	H1257	H	0.438391	0.661512	0.363342
	H1258	H	0.500022	0.582691	0.333442
	H1259	H	0.561719	0.723150	0.303814
	C1260	C	0.617191	0.464836	0.650594
	C1261	C	0.658213	0.465132	0.649632
	C1262	C	0.695720	0.500127	0.666525
	C1263	C	0.693255	0.535145	0.683481
	C1264	C	0.652546	0.535486	0.682652
	C1265	C	0.614074	0.500174	0.666652
	H1266	H	0.722986	0.561780	0.696265
	H1267	H	0.582524	0.500187	0.666697
	H1268	H	0.661260	0.438462	0.636809
	C1269	C	0.617332	0.635612	0.512215
	C1270	C	0.644463	0.678804	0.525604
	C1271	C	0.688786	0.705473	0.513249
	C1272	C	0.705442	0.688845	0.486981
	C1273	C	0.678977	0.644363	0.474951
	C1274	C	0.635324	0.617616	0.487586
	C1275	C	0.617524	0.688569	0.552267
	C1276	C	0.570932	0.617501	0.528233
	N1277	N	0.572907	0.651609	0.551410
	O1278	O	0.537504	0.582150	0.522705
	O1279	O	0.630017	0.720950	0.571362
	C1280	C	0.752919	0.724865	0.478183
	C1281	C	0.724848	0.752894	0.522124
	N1282	N	0.762528	0.762525	0.500151
	O1283	O	0.723950	0.778856	0.543365
	O1284	O	0.778928	0.723955	0.456988
	C1285	C	0.617321	0.571112	0.471818
	C1286	C	0.688529	0.617596	0.447961
	N1287	N	0.651481	0.573027	0.448720
	O1288	O	0.720833	0.630152	0.428747
	O1289	O	0.581996	0.537679	0.477435
	C1290	C	0.882517	0.518032	0.654358
	C1291	C	0.855434	0.534225	0.641022
	C1292	C	0.811067	0.516551	0.653293
	C1293	C	0.794361	0.483171	0.679468
	C1294	C	0.820769	0.465004	0.691408
	C1295	C	0.864257	0.481535	0.678486
	C1296	C	0.882510	0.571181	0.614613
	C1297	C	0.928977	0.546374	0.638479
	N1298	N	0.927121	0.578756	0.615514
	O1299	O	0.962365	0.544308	0.643963
	O1300	O	0.870113	0.591301	0.595664
	C1301	C	0.746949	0.471903	0.688376
	C1302	C	0.775053	0.528069	0.644507
	N1303	N	0.737380	0.500069	0.666489
	O1304	O	0.775972	0.554991	0.623314
	O1305	O	0.720955	0.445033	0.709589
	C1306	C	0.882490	0.453418	0.694680
	C1307	C	0.811192	0.428679	0.718393
	N1308	N	0.848305	0.421201	0.717754
	O1309	O	0.778825	0.408902	0.737533
	O1310	O	0.917981	0.455512	0.689336
	C1311	C	0.481738	0.864595	0.571346
	C1312	C	0.465666	0.821357	0.558037
	C1313	C	0.483326	0.794678	0.570423
	C1314	C	0.516629	0.811341	0.596644
	C1315	C	0.534662	0.855867	0.608585
	C1316	C	0.517749	0.882624	0.595919
	C1317	C	0.428948	0.811556	0.531409
	C1318	C	0.453440	0.882710	0.555311
	N1319	N	0.421287	0.848548	0.532214
	O1320	O	0.455372	0.918102	0.560772
	O1321	O	0.409052	0.779129	0.512370
	C1322	C	0.528092	0.775300	0.605484
	C1323	C	0.471967	0.747222	0.561613
	N1324	N	0.500027	0.737598	0.583580
	O1325	O	0.445100	0.721233	0.540416
	O1326	O	0.555022	0.776225	0.626661
	C1327	C	0.546278	0.929174	0.611578
	C1328	C	0.571028	0.882689	0.635486
	N1329	N	0.578558	0.927282	0.634636
	O1330	O	0.590809	0.870162	0.654700
	O1331	O	0.544385	0.962621	0.605912
	C1332	C	0.882653	0.847434	0.516156
	C1333	C	0.841663	0.806735	0.517108
	C1334	C	0.804169	0.804198	0.500118
	C1335	C	0.806616	0.841629	0.483074
	C1336	C	0.847284	0.882656	0.483916
	C1337	C	0.885745	0.885838	0.500012
	H1338	H	0.776896	0.838508	0.470210
	H1339	H	0.917269	0.917381	0.499976
	H1340	H	0.838628	0.777059	0.530000
	C1341	C	0.535374	0.652711	0.567472
	C1342	C	0.535064	0.693432	0.566619
	C1343	C	0.500055	0.695925	0.583581
	C1344	C	0.465040	0.658434	0.600505
	C1345	C	0.464704	0.617393	0.599555
	C1346	C	0.500033	0.614252	0.583488
	H1347	H	0.438391	0.661512	0.613342
	H1348	H	0.500022	0.582691	0.583442
	H1349	H	0.561719	0.723150	0.553814
	C1350	C	0.617191	0.464836	0.900594
	C1351	C	0.658213	0.465132	0.899632
	C1352	C	0.695720	0.500127	0.916525
	C1353	C	0.693255	0.535145	0.933481
	C1354	C	0.652546	0.535486	0.932652
	C1355	C	0.614074	0.500174	0.916652
	H1356	H	0.722986	0.561780	0.946265
	H1357	H	0.582524	0.500187	0.916697
	H1358	H	0.661260	0.438462	0.886809
	C1359	C	0.617332	0.635612	0.762215
	C1360	C	0.644463	0.678804	0.775604
	C1361	C	0.688786	0.705473	0.763249
	C1362	C	0.705442	0.688845	0.736981
	C1363	C	0.678977	0.644363	0.724951
	C1364	C	0.635324	0.617616	0.737586
	C1365	C	0.617524	0.688569	0.802267
	C1366	C	0.570932	0.617501	0.778233
	N1367	N	0.572907	0.651609	0.801410
	O1368	O	0.537504	0.582150	0.772705
	O1369	O	0.630017	0.720950	0.821362
	C1370	C	0.752919	0.724865	0.728183
	C1371	C	0.724848	0.752894	0.772124
	N1372	N	0.762528	0.762525	0.750151
	O1373	O	0.723950	0.778856	0.793365
	O1374	O	0.778928	0.723955	0.706988
	C1375	C	0.617321	0.571112	0.721818
	C1376	C	0.688529	0.617596	0.697961
	N1377	N	0.651481	0.573027	0.698720
	O1378	O	0.720833	0.630152	0.678747
	O1379	O	0.581996	0.537679	0.727435
	C1380	C	0.882517	0.518032	0.904358
	C1381	C	0.855434	0.534225	0.891022
	C1382	C	0.811067	0.516551	0.903293
	C1383	C	0.794361	0.483171	0.929468
	C1384	C	0.820769	0.465004	0.941408
	C1385	C	0.864257	0.481535	0.928486
	C1386	C	0.882510	0.571181	0.864613
	C1387	C	0.928977	0.546374	0.888479
	N1388	N	0.927121	0.578756	0.865514
	O1389	O	0.962365	0.544308	0.893963
	O1390	O	0.870113	0.591301	0.845664
	C1391	C	0.746949	0.471903	0.938376
	C1392	C	0.775053	0.528069	0.894507
	N1393	N	0.737380	0.500069	0.916489
	O1394	O	0.775972	0.554991	0.873314
	O1395	O	0.720955	0.445033	0.959589
	C1396	C	0.882490	0.453418	0.944680
	C1397	C	0.811192	0.428679	0.968393
	N1398	N	0.848305	0.421201	0.967754
	O1399	O	0.778825	0.408902	0.987533
	O1400	O	0.917981	0.455512	0.939336
	C1401	C	0.481738	0.864595	0.821346
	C1402	C	0.465666	0.821357	0.808037
	C1403	C	0.483326	0.794678	0.820423
	C1404	C	0.516629	0.811341	0.846644
	C1405	C	0.534662	0.855867	0.858585
	C1406	C	0.517749	0.882624	0.845919
	C1407	C	0.428948	0.811556	0.781409
	C1408	C	0.453440	0.882710	0.805311
	N1409	N	0.421287	0.848548	0.782214
	O1410	O	0.455372	0.918102	0.810772
	O1411	O	0.409052	0.779129	0.762370
	C1412	C	0.528092	0.775300	0.855484
	C1413	C	0.471967	0.747222	0.811613
	N1414	N	0.500027	0.737598	0.833580
	O1415	O	0.445100	0.721233	0.790416
	O1416	O	0.555022	0.776225	0.876661
	C1417	C	0.546278	0.929174	0.861578
	C1418	C	0.571028	0.882689	0.885486
	N1419	N	0.578558	0.927282	0.884636
	O1420	O	0.590809	0.870162	0.904700
	O1421	O	0.544385	0.962621	0.855912
	C1422	C	0.882653	0.847434	0.766156
	C1423	C	0.841663	0.806735	0.767108
	C1424	C	0.804169	0.804198	0.750118
	C1425	C	0.806616	0.841629	0.733074
	C1426	C	0.847284	0.882656	0.733916
	C1427	C	0.885745	0.885838	0.750012
	H1428	H	0.776896	0.838508	0.720210
	H1429	H	0.917269	0.917381	0.749976
	H1430	H	0.838628	0.777059	0.780000
	C1431	C	0.535374	0.652711	0.817472
	C1432	C	0.535064	0.693432	0.816619
	C1433	C	0.500055	0.695925	0.833581
	C1434	C	0.465040	0.658434	0.850505
	C1435	C	0.464704	0.617393	0.849555
	C1436	C	0.500033	0.614252	0.833488
	H1437	H	0.438391	0.661512	0.863342
	H1438	H	0.500022	0.582691	0.833442
	H1439	H	0.561719	0.723150	0.803814
	N1440	N	0.591792	0.668057	0.906736
	N1441	N	0.616730	0.657773	0.900752
	N1442	N	0.877112	0.009295	0.030514
	N1443	N	0.904671	0.003389	0.038204
	N1444	N	0.896575	0.745270	0.659481
	N1445	N	0.908945	0.780754	0.652875
	N1446	N	0.755905	-0.007508	0.563552
	N1447	N	0.792170	0.009459	0.557947
	N1448	N	0.437802	0.551653	0.489825
	N1449	N	0.434855	0.556125	0.518877
	N1450	N	0.117597	0.180170	0.147454
	N1451	N	0.097258	0.146043	0.136461
	N1452	N	0.753015	0.206378	0.586323
	N1453	N	0.734153	0.196181	0.611828
	N1454	N	0.565708	0.386366	0.764291
	N1455	N	0.595992	0.406509	0.747937
	C1456	C	0.243291	0.730121	0.375674
	O1457	O	0.259446	0.728751	0.348409
	O1458	O	0.227106	0.731492	0.402912
	C1459	C	0.606497	0.943381	0.515276
	O1460	O	0.585357	0.906421	0.505204
	O1461	O	0.627620	0.980308	0.525375
	C1462	C	0.304243	0.644196	0.647324
	O1463	O	0.289357	0.653819	0.622929
	O1464	O	0.319175	0.634606	0.671719
	C1465	C	0.590902	0.523115	0.796754
	O1466	O	0.589559	0.554611	0.806691
	O1467	O	0.592245	0.491618	0.786818
	C1468	C	0.688788	0.210920	0.388806
	O1469	O	0.653383	0.181447	0.381089
	O1470	O	0.724209	0.240428	0.396550
	C1471	C	0.083461	0.491092	0.535393
	O1472	O	0.054175	0.456897	0.525051
	O1473	O	0.112730	0.525253	0.545709
	C1474	C	0.905815	0.526252	0.278419
	O1475	O	0.918762	0.532032	0.248744
	O1476	O	0.892852	0.520437	0.308066
	C1477	C	0.459477	0.582773	0.732856
	O1478	O	0.433165	0.551096	0.748560
	O1479	O	0.485775	0.614484	0.717152
	C1480	C	0.378016	0.822621	0.405918
	O1481	O	0.414805	0.846731	0.415259
	O1482	O	0.341228	0.798510	0.396577
	C1483	C	0.306148	0.526854	0.288572
	O1484	O	0.296950	0.544065	0.265639
	O1485	O	0.315346	0.509643	0.311478
	C1486	C	0.289955	0.771850	0.875382
	O1487	O	0.308602	0.764643	0.852368
	O1488	O	0.271292	0.779023	0.898396
	C1489	C	0.785808	0.268744	0.873433
	O1490	O	0.757009	0.242546	0.855211
	O1491	O	0.814635	0.294941	0.891682
	C1492	C	0.746111	0.764226	0.360864
	O1493	O	0.764506	0.799903	0.373725
	O1494	O	0.727699	0.728515	0.347976
	C1495	C	0.199650	0.866087	0.053772
	O1496	O	0.161970	0.848620	0.045270
	O1497	O	0.237284	0.883520	0.062247
	C1498	C	0.815546	0.887549	0.842350
	O1499	O	0.811821	0.919420	0.843812
	O1500	O	0.819272	0.855677	0.840861
	C1501	C	0.608303	0.980891	0.281126
	O1502	O	0.580147	0.943286	0.279989
	O1503	O	0.636460	1.018497	0.282236
	C1504	C	0.496000	0.133358	0.959831
	O1505	O	0.532720	0.140001	0.960643
	O1506	O	0.459251	0.126714	0.958992
	C1507	C	0.684340	0.078661	0.571756
	O1508	O	0.682461	0.057232	0.596774
	O1509	O	0.686266	0.100122	0.546765
	C1510	C	0.163644	0.048238	0.056480
	O1511	O	0.151332	0.012347	0.067879
	O1512	O	0.175973	0.084162	0.045108
	C1513	C	0.785088	0.027740	0.037852
	O1514	O	0.798899	0.015554	0.061353
	O1515	O	0.771260	0.039893	0.014350
	C1516	C	0.097242	0.809931	0.275928
	O1517	O	0.081117	0.830027	0.287787
	O1518	O	0.113412	0.789869	0.264096
	C1519	C	0.455527	0.795073	0.168708
	O1520	O	0.446479	0.758685	0.160748
	O1521	O	0.464605	0.831461	0.176668
	C1522	C	0.421837	0.307691	0.149972
	O1523	O	0.396033	0.285205	0.128095
	O1524	O	0.447642	0.330177	0.171849
	C1525	C	0.862138	0.746749	0.375485
	O1526	O	0.898311	0.768632	0.386938
	O1527	O	0.825948	0.724831	0.364032
	C1528	C	0.394457	0.405718	0.115071
	O1529	O	0.401270	0.377518	0.125062
	O1530	O	0.387645	0.433918	0.105053
	C1531	C	0.894528	0.530455	0.527108
	O1532	O	0.885596	0.534617	0.497569
	O1533	O	0.903489	0.526293	0.556648
	C1534	C	0.898253	0.790549	0.918026
	O1535	O	0.882914	0.813210	0.924876
	O1536	O	0.913546	0.767854	0.911176
	C1537	C	0.959223	0.288842	0.436324
	O1538	O	0.952695	0.254749	0.424329
	O1539	O	0.965751	0.322935	0.448318
	C1540	C	0.979368	0.647022	0.218473
	O1541	O	1.002420	0.670317	0.241379
	O1542	O	0.956299	0.623693	0.195540
	C1543	C	0.836129	0.183580	0.880039
	O1544	O	0.843227	0.163334	0.901727
	O1545	O	0.828984	0.203792	0.858379
	C1546	C	0.638011	0.499633	0.294989
	O1547	O	0.609136	0.468969	0.309962
	O1548	O	0.666856	0.530298	0.279989
	C1549	C	0.812469	0.117996	0.772143
	O1550	O	0.811091	0.087311	0.757495
	O1551	O	0.813875	0.148681	0.786791
	C1552	C	0.679343	0.674925	0.120351
	O1553	O	0.687752	0.675715	0.089810
	O1554	O	0.670963	0.674136	0.150865
	C1555	C	0.349418	0.895845	0.843704
	O1556	O	0.337281	0.858135	0.849444
	O1557	O	0.361572	0.933588	0.837964
	C1558	C	0.123374	0.543245	0.806312
	O1559	O	0.125770	0.512626	0.795590
	O1560	O	0.121026	0.573898	0.817007
	C1561	C	0.819887	0.175119	0.425521
	O1562	O	0.823458	0.157232	0.450972
	O1563	O	0.816316	0.193006	0.400069
	C1564	C	0.120653	0.702248	0.408355
	O1565	O	0.131918	0.681547	0.390701
	O1566	O	0.109388	0.722948	0.426008
	C1567	C	0.803070	0.517487	0.047030
	O1568	O	0.801507	0.537465	0.022202
	O1569	O	0.804661	0.497509	0.071886
	C1570	C	0.251628	0.994307	0.297480
	O1571	O	0.254327	1.010644	0.269375
	O1572	O	0.248930	0.977971	0.325611
	C1573	C	0.229583	0.725376	0.131940
	O1574	O	0.210586	0.737205	0.151028
	O1575	O	0.248580	0.713546	0.112824
	C1576	C	0.998259	0.798225	0.207751
	O1577	O	1.006414	0.788702	0.235775
	O1578	O	0.990058	0.807715	0.179701
	C1579	C	0.534717	0.291777	0.213004
	O1580	O	0.561961	0.317907	0.232390
	O1581	O	0.507489	0.265681	0.193645
	C1582	C	0.851528	0.888022	0.101344
	O1583	O	0.861765	0.922755	0.114313
	O1584	O	0.841278	0.853322	0.088402
	C1585	C	0.339247	0.675884	0.237562
	O1586	O	0.314522	0.653883	0.260251
	O1587	O	0.363956	0.697850	0.214872
	C1588	C	0.676227	0.564186	0.075054
	O1589	O	0.678267	0.537668	0.093357
	O1590	O	0.674188	0.590704	0.056751
	C1591	C	0.219699	0.845233	0.372588
	O1592	O	0.187822	0.843249	0.359673
	O1593	O	0.251547	0.847217	0.385503
	C1594	C	0.154693	0.805395	0.830166
	O1595	O	0.172939	0.802854	0.855779
	O1596	O	0.136400	0.807903	0.804552
	C1597	C	0.071311	0.144554	0.666629
	O1598	O	0.060514	0.152501	0.694192
	O1599	O	0.082108	0.136607	0.639039
	C1600	C	0.759127	0.490699	0.287354
	O1601	O	0.789908	0.494045	0.271433
	O1602	O	0.728345	0.487353	0.303274
	C1603	C	0.272197	0.466235	0.535827
	O1604	O	0.242284	0.439987	0.553209
	O1605	O	0.302111	0.492483	0.518444
	C1606	C	0.310893	0.125185	0.539590
	O1607	O	0.349438	0.146667	0.544599
	O1608	O	0.272301	0.103669	0.534554
	C1609	C	0.764917	0.627005	0.846465
	O1610	O	0.737615	0.596253	0.830464
	O1611	O	0.792220	0.657757	0.862467
	C1612	C	0.549950	0.187080	0.452759
	O1613	O	0.530956	0.186485	0.426576
	O1614	O	0.568973	0.187675	0.478968
	C1615	C	0.353069	0.387385	0.600781
	O1616	O	0.341516	0.349440	0.604436
	O1617	O	0.364651	0.425330	0.597099
	C1618	C	0.710702	0.501128	0.790392
	O1619	O	0.685339	0.468540	0.805689
	O1620	O	0.736048	0.533681	0.775121
	C1621	C	0.735097	0.725836	0.600619
	O1622	O	0.704230	0.715238	0.619436
	O1623	O	0.765964	0.736435	0.581801
	C1624	C	0.760862	0.979987	0.785410
	O1625	O	0.799054	0.993615	0.780536
	O1626	O	0.722700	0.966359	0.790283
	C1627	C	0.168114	0.797192	0.180594
	O1628	O	0.179963	0.828466	0.161993
	O1629	O	0.156281	0.765952	0.199222
	C1630	C	0.084577	0.660369	0.163564
	O1631	O	0.057281	0.670553	0.168275
	O1632	O	0.111862	0.650219	0.158826
	C1633	C	0.683699	0.348407	0.281289
	O1634	O	0.704932	0.382161	0.296695
	O1635	O	0.662512	0.314687	0.265883
	C1636	C	0.645550	0.206228	0.915806
	O1637	O	0.672740	0.241434	0.926257
	O1638	O	0.618359	0.171022	0.905355
	C1639	C	0.671500	0.234671	0.670636
	O1640	O	0.647841	0.202671	0.654012
	O1641	O	0.695159	0.266670	0.687261
	C1642	C	0.259753	0.002624	0.532659
	O1643	O	0.234268	-0.018500	0.555213
	O1644	O	0.285285	0.023781	0.510105
	C1645	C	0.425626	0.077459	0.247959
	O1646	O	0.458053	0.110744	0.255729
	O1647	O	0.393245	0.044208	0.240188
	C1648	C	0.897976	0.670066	0.198898
	O1649	O	0.914029	0.705958	0.186443
	O1650	O	0.881953	0.634175	0.211325
	C1651	C	0.668562	0.037680	0.059648
	O1652	O	0.671450	0.011398	0.077626
	O1653	O	0.665628	0.063928	0.041669
	C1654	C	0.944657	0.143441	0.222453
	O1655	O	0.966440	0.153075	0.248554
	O1656	O	0.922874	0.133807	0.196380
	C1657	C	0.823672	0.635097	0.335684
	O1658	O	0.802374	0.619763	0.309664
	O1659	O	0.844952	0.650397	0.361676
	C1660	C	0.186331	0.333874	0.275332
	O1661	O	0.189672	0.356089	0.300215
	O1662	O	0.182960	0.311659	0.250477
	C1663	C	0.121010	0.923395	0.781809
	O1664	O	0.127718	0.949813	0.759390
	O1665	O	0.114302	0.896976	0.804200
	C1666	C	0.875783	0.415916	0.828460
	O1667	O	0.863336	0.379755	0.839399
	O1668	O	0.888241	0.452042	0.817548
	C1669	C	0.174290	0.062373	0.565610
	O1670	O	0.173875	0.038552	0.588191
	O1671	O	0.174704	0.086195	0.543056
	C1672	C	0.475565	0.249166	0.464266
	O1673	O	0.441610	0.236289	0.449130
	O1674	O	0.509549	0.262043	0.479428
	C1675	C	0.339060	0.173658	0.818415
	O1676	O	0.323272	0.150162	0.793559
	O1677	O	0.354877	0.197155	0.843270
	C1678	C	0.588240	0.308799	0.013565
	O1679	O	0.594878	0.345391	0.016652
	O1680	O	0.581647	0.272240	0.010478
	C1681	C	0.331231	0.184188	0.433589
	O1682	O	0.329516	0.160805	0.457064
	O1683	O	0.332947	0.207572	0.410142
	C1684	C	0.165820	0.809421	0.950896
	O1685	O	0.152696	0.827844	0.932403
	O1686	O	0.178944	0.790998	0.969362
	C1687	C	0.742897	0.413610	0.559761
	O1688	O	0.708750	0.379984	0.558706
	O1689	O	0.777016	0.447235	0.560817
	C1690	C	0.302266	0.670375	0.039395
	O1691	O	0.332623	0.702444	0.051579
	O1692	O	0.271920	0.638273	0.027211
	C1693	C	0.088794	0.920129	0.250802
	O1694	O	0.075876	0.910395	0.221289
	O1695	O	0.101696	0.929829	0.280314
	C1696	C	0.792821	0.662643	0.131912
	O1697	O	0.763759	0.656109	0.112201
	O1698	O	0.821900	0.669211	0.151623
	C1699	C	0.561923	0.661498	0.424248
	O1700	O	0.585427	0.649755	0.436811
	O1701	O	0.538407	0.673275	0.411685
	C1702	C	0.822110	0.636736	0.511973
	O1703	O	0.812085	0.659393	0.528300
	O1704	O	0.832122	0.614113	0.495619
	C1705	C	0.466696	0.684720	0.460475
	O1706	O	0.495456	0.688893	0.479591
	O1707	O	0.437918	0.680512	0.441360
	C1708	C	0.138181	0.134072	0.873351
	O1709	O	0.130083	0.135778	0.903622
	O1710	O	0.146250	0.132365	0.843054
	C1711	C	0.007644	0.782703	0.964190
	O1712	O	0.012712	0.755344	0.978513
	O1713	O	0.002558	0.810029	0.949840
	C1714	C	0.986518	0.746972	0.700149
	O1715	O	0.971577	0.725229	0.674318
	O1716	O	1.001475	0.768748	0.726006
	C1717	C	0.870962	0.631079	0.714228
	O1718	O	0.905865	0.657853	0.725518
	O1719	O	0.836059	0.604305	0.702937
	C1720	C	0.958121	0.145242	0.709869
	O1721	O	0.985428	0.176062	0.725789
	O1722	O	0.930814	0.114423	0.693975
	C1723	C	0.730111	0.519515	0.553967
	O1724	O	0.713433	0.494378	0.577794
	O1725	O	0.746771	0.544619	0.530168
	C1726	C	0.124512	0.548219	0.329023
	O1727	O	0.114553	0.574690	0.337633
	O1728	O	0.134484	0.521713	0.320413
	C1729	C	0.942851	0.879751	0.191560
	O1730	O	0.966767	0.884057	0.215387
	O1731	O	0.918906	0.875445	0.167706
	C1732	C	0.082457	0.404719	0.013917
	O1733	O	0.109370	0.428723	0.034521
	O1734	O	0.055555	0.380681	-0.006688
	C1735	C	0.282860	0.251215	0.113691
	O1736	O	0.302174	0.279840	0.134620
	O1737	O	0.263530	0.222556	0.092788
	C1738	C	0.886649	0.934188	0.336442
	O1739	O	0.902211	0.972201	0.329673
	O1740	O	0.871099	0.896141	0.343211
	C1741	C	0.524254	0.655596	0.201524
	O1742	O	0.489330	0.636446	0.187390
	O1743	O	0.559162	0.674713	0.215657
	C1744	C	0.285988	0.512593	0.793343
	O1745	O	0.294193	0.526671	0.764020
	O1746	O	0.277829	0.498550	0.822666
	C1747	C	0.211674	0.526458	0.047193
	O1748	O	0.203995	0.552569	0.033736
	O1749	O	0.219308	0.500314	0.060622
	C1750	C	0.244497	0.238603	0.627586
	O1751	O	0.249031	0.223674	0.600727
	O1752	O	0.239950	0.253565	0.654418
	C1753	C	0.490756	0.885149	0.705889
	O1754	O	0.501897	0.900920	0.734508
	O1755	O	0.479645	0.869378	0.677297
	C1756	C	0.271642	0.996645	0.791664
	O1757	O	0.276568	0.981591	0.818280
	O1758	O	0.266762	1.011733	0.765049
	C1759	C	0.952468	0.624824	0.970065
	O1760	O	0.919954	0.613837	0.953279
	O1761	O	0.985028	0.635845	0.986852
	C1762	C	0.004692	0.274001	0.216443
	O1763	O	0.021743	0.305528	0.235016
	O1764	O	-0.012314	0.242509	0.197842
	C1765	C	0.858706	0.302894	0.389212
	O1766	O	0.827920	0.308019	0.393382
	O1767	O	0.889464	0.297769	0.385070
	C1768	C	0.968079	0.641917	0.466973
	O1769	O	0.946980	0.628033	0.440683
	O1770	O	0.989166	0.655834	0.493237
	C1771	C	0.686242	0.844963	0.965463
	O1772	O	0.665682	0.826974	0.991239
	O1773	O	0.706819	0.862985	0.939687
	C1774	C	0.879533	0.216108	0.698957
	O1775	O	0.894247	0.253650	0.690862
	O1776	O	0.864820	0.178566	0.707053
	C1777	C	0.193131	0.338413	0.379681
	O1778	O	0.190849	0.371128	0.380521
	O1779	O	0.195366	0.305664	0.378842
	C1780	C	0.125448	0.249663	0.705537
	O1781	O	0.104195	0.265856	0.696575
	O1782	O	0.146702	0.233470	0.714499
	C1783	C	0.287968	0.147439	0.257137
	O1784	O	0.300494	0.128560	0.238590
	O1785	O	0.275459	0.166351	0.275684
	C1786	C	0.092312	0.399465	0.735374
	O1787	O	0.120189	0.398648	0.752675
	O1788	O	0.064407	0.400283	0.718073
	C1789	C	0.370987	0.684388	0.743794
	O1790	O	0.396301	0.677076	0.728497
	O1791	O	0.345686	0.691666	0.759092
	C1792	C	0.001508	0.182759	0.462343
	O1793	O	0.027703	0.210474	0.481350
	O1794	O	-0.024670	0.155077	0.443309
	C1795	C	0.167615	0.683749	0.887701
	O1796	O	0.142735	0.681749	0.909985
	O1797	O	0.192478	0.685715	0.865418
	C1798	C	0.321773	0.493943	0.052473
	O1799	O	0.311154	0.477370	0.080875
	O1800	O	0.332393	0.510516	0.024070
	C1801	C	0.309732	0.617329	0.543976
	O1802	O	0.290805	0.579592	0.535583
	O1803	O	0.328659	0.655065	0.552370
	C1804	C	0.005223	0.647269	0.712495
	O1805	O	0.038861	0.662439	0.728497
	O1806	O	-0.028385	0.632099	0.696466
	C1807	C	0.290362	0.145686	0.032816
	O1808	O	0.277895	0.132175	0.003791
	O1809	O	0.302846	0.159231	0.061814
	C1810	C	0.355218	0.658571	0.926338
	O1811	O	0.367004	0.696751	0.924578
	O1812	O	0.343431	0.620391	0.928071
	C1813	C	0.656772	0.303774	0.382470
	O1814	O	0.660193	0.329754	0.360674
	O1815	O	0.653368	0.277828	0.404293
	C1816	C	0.330229	0.322393	0.379059
	O1817	O	0.320542	0.336952	0.403616
	O1818	O	0.339915	0.307834	0.354474
	C1819	C	0.639673	0.973611	0.787657
	O1820	O	0.667489	1.005962	0.773632
	O1821	O	0.611827	0.941261	0.801655
	C1822	C	0.093232	0.079390	0.376811
	O1823	O	0.112017	0.083113	0.349736
	O1824	O	0.074446	0.075668	0.403887
	C1825	C	0.324253	0.924150	0.085803
	O1826	O	0.307008	0.908354	0.113230
	O1827	O	0.341499	0.939947	0.058375
	C1828	C	0.840598	0.171044	0.266180
	O1829	O	0.864827	0.159514	0.254782
	O1830	O	0.816368	0.182573	0.277606
	C1831	C	0.004818	0.792952	0.456414
	O1832	O	0.025857	0.818068	0.479184
	O1833	O	-0.016208	0.767802	0.433643
	C1834	C	0.832508	0.882128	0.599454
	O1835	O	0.824754	0.845232	0.595935
	O1836	O	0.840262	0.919024	0.603001
	C1837	C	0.180982	0.054002	0.803036
	O1838	O	0.164408	0.021987	0.821122
	O1839	O	0.197556	0.086017	0.784949
	C1840	C	0.990072	0.901422	0.964434
	O1841	O	1.003146	0.920365	0.991726
	O1842	O	0.976968	0.882480	0.937114
	C1843	C	0.386367	0.172633	0.182733
	O1844	O	0.389225	0.140254	0.184223
	O1845	O	0.383492	0.204978	0.181271
	C1846	C	0.259862	0.769103	0.612748
	O1847	O	0.291413	0.779668	0.594770
	O1848	O	0.228310	0.758538	0.630727
	C1849	C	0.085535	0.949724	0.511783
	O1850	O	0.048706	0.920619	0.508074
	O1851	O	0.122380	0.978862	0.515466
	C1852	C	0.299424	0.677364	0.837043
	O1853	O	0.282062	0.672486	0.809101
	O1854	O	0.316757	0.682242	0.865012
	C1855	C	0.724637	0.888428	0.096822
	O1856	O	0.759996	0.895979	0.106543
	O1857	O	0.689279	0.880878	0.087102
	C1858	C	0.171883	0.832550	0.672883
	O1859	O	0.171414	0.818338	0.701529
	O1860	O	0.172365	0.846728	0.644237
	C1861	C	0.167090	0.350106	0.845626
	O1862	O	0.142637	0.317162	0.830355
	O1863	O	0.191525	0.383017	0.860924
	C1864	C	0.841385	0.781754	0.161154
	O1865	O	0.869135	0.780802	0.178564
	O1866	O	0.813617	0.782673	0.143744
	C1867	C	0.674191	0.343198	0.684120
	O1868	O	0.646247	0.316680	0.702802
	O1869	O	0.702153	0.369750	0.665438
	C1870	C	0.693639	0.303340	0.150216
	O1871	O	0.674858	0.265731	0.158988
	O1872	O	0.712448	0.340950	0.141470
	C1873	C	0.514713	0.808461	0.467596
	O1874	O	0.500874	0.814679	0.440845
	O1875	O	0.528551	0.802243	0.494374
	C1876	C	0.583996	0.452242	0.009016
	O1877	O	0.549565	0.418987	0.010614
	O1878	O	0.618427	0.485498	0.007446
	C1879	C	0.691439	0.608653	0.339610
	O1880	O	0.688868	0.577583	0.354528
	O1881	O	0.693992	0.639688	0.324691
	C1882	C	0.646771	0.784353	0.379384
	O1883	O	0.638915	0.756923	0.401180
	O1884	O	0.654656	0.811783	0.357615
	C1885	C	0.194685	0.208428	0.381360
	O1886	O	0.199127	0.199167	0.352010
	O1887	O	0.190289	0.217723	0.410737
	C1888	C	0.566274	0.842222	0.763533
	O1889	O	0.542922	0.843379	0.741249
	O1890	O	0.589579	0.841031	0.785816
	C1891	C	0.956648	0.148799	0.970959
	O1892	O	0.942462	0.114000	0.956853
	O1893	O	0.970818	0.183566	0.985065
	C1894	C	0.276687	0.895747	0.613913
	O1895	O	0.269536	0.859656	0.620736
	O1896	O	0.283854	0.931872	0.607090
	C1897	C	0.334718	0.693084	0.459907
	O1898	O	0.363894	0.725232	0.446694
	O1899	O	0.305572	0.660936	0.473119
	C1900	C	0.160669	0.439935	0.297480
	O1901	O	0.199310	0.457037	0.292660
	O1902	O	0.122074	0.422867	0.302272
	C1903	C	0.017762	0.276712	0.705591
	O1904	O	-0.006100	0.259287	0.681196
	O1905	O	0.041607	0.294105	0.729959
	C1906	C	0.777126	0.645256	0.613723
	O1907	O	0.746995	0.636699	0.594608
	O1908	O	0.807287	0.653814	0.632866
	C1909	C	0.172070	0.330693	0.594391
	O1910	O	0.188995	0.322520	0.618191
	O1911	O	0.155161	0.338899	0.570592
	C1912	C	0.893757	0.083545	0.511404
	O1913	O	0.929835	0.088435	0.512515
	O1914	O	0.857662	0.078621	0.510267
	C1915	C	0.455803	0.387101	0.927476
	O1916	O	0.437148	0.377468	0.899831
	O1917	O	0.474458	0.396735	0.955093
	C1918	C	0.811127	0.380247	0.351604
	O1919	O	0.807271	0.402092	0.373779
	O1920	O	0.814967	0.358369	0.329402
	C1921	C	0.544659	0.164299	0.189990
	O1922	O	0.509987	0.160289	0.182192
	O1923	O	0.579332	0.168309	0.197815
	C1924	C	0.267243	0.644507	0.334844
	O1925	O	0.228318	0.625250	0.331649
	O1926	O	0.306215	0.663797	0.338039
	C1927	C	0.738369	0.743243	0.890030
	O1928	O	0.720910	0.709320	0.874326
	O1929	O	0.755783	0.777131	0.905761
	C1930	C	0.581171	0.808423	0.254646
	O1931	O	0.556255	0.818637	0.266749
	O1932	O	0.606117	0.798209	0.242516
	C1933	C	0.481568	0.291509	0.947647
	O1934	O	0.466960	0.294254	0.920003
	O1935	O	0.496147	0.288765	0.975291
	C1936	C	0.672109	0.861264	0.497596
	O1937	O	0.674447	0.890362	0.515330
	O1938	O	0.669725	0.832132	0.479888
	C1939	C	0.860214	0.522142	0.785410
	O1940	O	0.845675	0.500646	0.811429
	O1941	O	0.874752	0.543638	0.759363
	C1942	C	0.424510	0.874258	0.921654
	O1943	O	0.387010	0.856859	0.912719
	O1944	O	0.462022	0.891623	0.930562
	C1945	C	0.521191	0.782872	0.964163
	O1946	O	0.540934	0.787952	0.990914
	O1947	O	0.501436	0.777825	0.937385
	C1948	C	0.133768	0.810394	0.519365
	O1949	O	0.147227	0.841515	0.538318
	O1950	O	0.120321	0.779238	0.500439
	C1951	C	0.165149	0.347171	0.996383
	O1952	O	0.144764	0.359440	1.013359
	O1953	O	0.185504	0.334902	0.979407
	C1954	C	0.852760	0.191160	0.085234
	O1955	O	0.825653	0.174610	0.062761
	O1956	O	0.879867	0.207710	0.107734
	C1957	C	0.692860	0.091461	0.829245
	O1958	O	0.696208	0.115890	0.806068
	O1959	O	0.689500	0.067065	0.852395
	C1960	C	0.824059	0.635888	0.967331
	O1961	O	0.844993	0.629692	0.945697
	O1962	O	0.803126	0.642084	0.988937
	C1963	C	0.418427	0.930350	0.617839
	O1964	O	0.431456	0.908690	0.631891
	O1965	O	0.405415	0.952043	0.603814
	C1966	C	0.838060	0.152183	0.578444
	O1967	O	0.818867	0.138839	0.551287
	O1968	O	0.857253	0.165526	0.605601
	C1969	C	0.280382	0.275999	0.865635
	O1970	O	0.307543	0.282450	0.843974
	O1971	O	0.253208	0.269581	0.887295
	C1972	C	0.014635	0.285735	0.963594
	O1973	O	0.043136	0.289740	0.982926
	O1974	O	-0.013882	0.281696	0.944235
	C1975	C	0.495537	0.715910	0.697820
	O1976	O	0.473716	0.700171	0.672152
	O1977	O	0.517404	0.731683	0.723515
	C1978	C	0.513819	0.262341	0.714011
	O1979	O	0.488298	0.247444	0.690266
	O1980	O	0.539328	0.277271	0.737757
	C1981	C	0.316095	0.419143	0.333761
	O1982	O	0.292282	0.403887	0.358535
	O1983	O	0.339862	0.434365	0.309014
	C1984	C	0.433040	0.330792	0.672423
	O1985	O	0.456494	0.328084	0.693732
	O1986	O	0.409586	0.333500	0.651115
	C1987	C	0.638873	0.311067	0.513706
	O1988	O	0.663648	0.312156	0.491720
	O1989	O	0.614109	0.309944	0.535718
	C1990	C	0.323885	0.154135	0.661187
	O1991	O	0.310275	0.127648	0.684336
	O1992	O	0.337479	0.180587	0.638010
	C1993	C	0.836594	0.331582	0.124115
	O1994	O	0.860163	0.320660	0.110387
	O1995	O	0.813024	0.342503	0.137842
	C1996	C	0.672712	0.341811	0.916293
	O1997	O	0.649885	0.317584	0.938901
	O1998	O	0.695555	0.366071	0.893712
	C1999	C	0.731674	0.363574	0.822287
	O2000	O	0.770659	0.382190	0.825021
	O2001	O	0.692688	0.344958	0.819579
	C2002	C	0.854968	0.301671	0.630727
	O2003	O	0.881482	0.306065	0.609093
	O2004	O	0.828484	0.297277	0.652360
	C2005	C	0.718401	0.121129	0.336631
	O2006	O	0.698537	0.086620	0.351252
	O2007	O	0.738282	0.155672	0.322010
	C2008	C	0.899710	0.460779	0.074241
	O2009	O	0.888197	0.435507	0.098230
	O2010	O	0.911253	0.486052	0.050252
	C2011	C	0.942479	0.451000	0.367362
	O2012	O	0.965450	0.437369	0.377705
	O2013	O	0.919508	0.464630	0.357019
	C2014	C	0.767488	0.986864	0.275711
	O2015	O	0.736273	0.963921	0.293419
	O2016	O	0.798715	1.009772	0.257977
	C2017	C	0.124125	0.308310	0.494997
	O2018	O	0.088582	0.289045	0.508128
	O2019	O	0.159668	0.327574	0.481865
