data_Molecule from CHK

_cell_length_a		34.239274
_cell_length_b		34.222385
_cell_length_c		36.967780
_cell_angle_alpha	90.045117
_cell_angle_beta	89.981653
_cell_angle_gamma	120.063341
_symmetry_space_group_name_H-M	'P 1'
_symmetry_Int_Tables_number		1

loop_
	_symmetry_equiv_pos_as_xyz
	x,y,z

loop_
	_atom_site_label
	_atom_site_type_symbol
	_atom_site_fract_x
	_atom_site_fract_y
	_atom_site_fract_z
	C0	C	0.144579	-0.034428	0.141370
	C1	C	0.117464	-0.018290	0.154655
	C2	C	0.135434	0.017684	0.179305
	C3	C	0.179058	0.034554	0.192017
	C4	C	0.205486	0.016431	0.180119
	C5	C	0.188656	-0.017260	0.154184
	C6	C	0.071147	-0.046387	0.138420
	C7	C	0.117701	-0.071064	0.114633
	N8	N	0.073124	-0.078556	0.115283
	O9	O	0.130213	-0.091004	0.095615
	O10	O	0.037766	-0.044304	0.143768
	C11	C	0.188678	0.071072	0.218832
	C12	C	0.117483	0.046307	0.194919
	N13	N	0.151652	0.078627	0.217974
	O14	O	0.082181	0.044439	0.189229
	O15	O	0.221010	0.090930	0.237999
	C16	C	0.224970	-0.028132	0.144941
	C17	C	0.252993	0.027945	0.188907
	N18	N	0.262668	-0.000015	0.166877
	O19	O	0.278977	0.054842	0.210130
	O20	O	0.224215	-0.054740	0.123503
	C21	C	0.117259	0.152537	0.015966
	C22	C	0.158290	0.193302	0.016928
	C23	C	0.195846	0.195835	0.000083
	C24	C	0.193418	0.158338	-0.016833
	C25	C	0.152694	0.117256	-0.016012
	C26	C	0.114177	0.114071	-0.000055
	H27	H	0.223185	0.161445	-0.029577
	H28	H	0.082617	0.082478	-0.000100
	H29	H	0.161311	0.223031	0.029720
	C30	C	0.304373	0.000071	0.166811
	C31	C	0.341810	0.035046	0.149763
	C32	C	0.382843	0.035403	0.150582
	C33	C	0.386022	0.000131	0.166655
	C34	C	0.347611	-0.035171	0.182807
	C35	C	0.306914	-0.034866	0.183790
	H36	H	0.417569	0.000149	0.166592
	H37	H	0.277233	-0.061480	0.196703
	H38	H	0.338695	0.061639	0.136913
	C39	C	-0.035081	0.347572	0.067043
	C40	C	-0.034846	0.306818	0.066079
	C41	C	0.000116	0.304282	0.083001
	C42	C	0.035157	0.341765	0.099989
	C43	C	0.035568	0.382844	0.099159
	C44	C	0.000288	0.386027	0.083128
	H45	H	0.061753	0.338639	0.112805
	H46	H	0.000345	0.417609	0.083176
	H47	H	-0.061538	0.277099	0.053237
	C48	C	0.321345	0.355796	-0.025212
	C49	C	0.364648	0.382947	-0.011954
	C50	C	0.382656	0.364954	0.012592
	C51	C	0.355841	0.321283	0.025244
	C52	C	0.311240	0.294827	0.013386
	C53	C	0.294383	0.311674	-0.012462
	C54	C	0.382886	0.429312	-0.028099
	C55	C	0.311583	0.382680	-0.051853
	N56	N	0.348695	0.427304	-0.051153
	O57	O	0.279090	0.370138	-0.070826
	O58	O	0.418382	0.462744	-0.022741
	C59	C	0.382727	0.311633	0.051970
	C60	C	0.429275	0.382899	0.028137
	N61	N	0.427372	0.348670	0.051092
	O62	O	0.462772	0.418223	0.022462
	O63	O	0.370198	0.279266	0.071088
	C64	C	0.247136	0.275327	-0.021693
	C65	C	0.275187	0.247274	0.022132
	N66	N	0.237519	0.237588	0.000163
	O67	O	0.276084	0.221265	0.043284
	O68	O	0.221264	0.276091	-0.043063
	C69	C	-0.034291	0.144467	0.108543
	C70	C	-0.018205	0.117307	0.095239
	C71	C	0.017784	0.135275	0.070642
	C72	C	0.034668	0.178925	0.057959
	C73	C	0.016621	0.205408	0.069900
	C74	C	-0.016666	0.188784	0.096132
	C75	C	-0.046452	0.070914	0.111316
	C76	C	-0.070961	0.117571	0.135212
	N77	N	-0.078582	0.072929	0.134443
	O78	O	-0.090847	0.130113	0.154257
	O79	O	-0.044502	0.037461	0.105862
	C80	C	0.071028	0.188459	0.031049
	C81	C	0.046327	0.117266	0.054977
	N82	N	0.078587	0.151422	0.031904
	O83	O	0.044453	0.081943	0.060644
	O84	O	0.090785	0.220744	0.011826
	C85	C	-0.028032	0.224880	0.104940
	C86	C	0.028076	0.252901	0.061059
	N87	N	0.000018	0.262549	0.082966
	O88	O	0.055000	0.278894	0.039880
	O89	O	-0.054895	0.224013	0.126138
	C90	C	0.144579	-0.034428	0.391370
	C91	C	0.117464	-0.018290	0.404655
	C92	C	0.135434	0.017684	0.429305
	C93	C	0.179058	0.034554	0.442017
	C94	C	0.205486	0.016431	0.430119
	C95	C	0.188656	-0.017260	0.404184
	C96	C	0.071147	-0.046387	0.388420
	C97	C	0.117701	-0.071064	0.364633
	N98	N	0.073124	-0.078556	0.365283
	O99	O	0.130213	-0.091004	0.345615
	O100	O	0.037766	-0.044304	0.393768
	C101	C	0.188678	0.071072	0.468832
	C102	C	0.117483	0.046307	0.444919
	N103	N	0.151652	0.078627	0.467974
	O104	O	0.082181	0.044439	0.439229
	O105	O	0.221010	0.090930	0.487999
	C106	C	0.224970	-0.028132	0.394941
	C107	C	0.252993	0.027945	0.438907
	N108	N	0.262668	-0.000015	0.416877
	O109	O	0.278977	0.054842	0.460130
	O110	O	0.224215	-0.054740	0.373503
	C111	C	0.117259	0.152537	0.265966
	C112	C	0.158290	0.193302	0.266928
	C113	C	0.195846	0.195835	0.250083
	C114	C	0.193418	0.158338	0.233167
	C115	C	0.152694	0.117256	0.233988
	C116	C	0.114177	0.114071	0.249945
	H117	H	0.223185	0.161445	0.220423
	H118	H	0.082617	0.082478	0.249900
	H119	H	0.161311	0.223031	0.279720
	C120	C	0.304373	0.000071	0.416811
	C121	C	0.341810	0.035046	0.399763
	C122	C	0.382843	0.035403	0.400582
	C123	C	0.386022	0.000131	0.416655
	C124	C	0.347611	-0.035171	0.432807
	C125	C	0.306914	-0.034866	0.433790
	H126	H	0.417569	0.000149	0.416592
	H127	H	0.277233	-0.061480	0.446703
	H128	H	0.338695	0.061639	0.386913
	C129	C	-0.035081	0.347572	0.317043
	C130	C	-0.034846	0.306818	0.316079
	C131	C	0.000116	0.304282	0.333001
	C132	C	0.035157	0.341765	0.349989
	C133	C	0.035568	0.382844	0.349159
	C134	C	0.000288	0.386027	0.333128
	H135	H	0.061753	0.338639	0.362805
	H136	H	0.000345	0.417609	0.333176
	H137	H	-0.061538	0.277099	0.303237
	C138	C	0.321345	0.355796	0.224788
	C139	C	0.364648	0.382947	0.238046
	C140	C	0.382656	0.364954	0.262592
	C141	C	0.355841	0.321283	0.275244
	C142	C	0.311240	0.294827	0.263386
	C143	C	0.294383	0.311674	0.237538
	C144	C	0.382886	0.429312	0.221901
	C145	C	0.311583	0.382680	0.198147
	N146	N	0.348695	0.427304	0.198847
	O147	O	0.279090	0.370138	0.179174
	O148	O	0.418382	0.462744	0.227259
	C149	C	0.382727	0.311633	0.301970
	C150	C	0.429275	0.382899	0.278137
	N151	N	0.427372	0.348670	0.301092
	O152	O	0.462772	0.418223	0.272462
	O153	O	0.370198	0.279266	0.321088
	C154	C	0.247136	0.275327	0.228307
	C155	C	0.275187	0.247274	0.272132
	N156	N	0.237519	0.237588	0.250163
	O157	O	0.276084	0.221265	0.293284
	O158	O	0.221264	0.276091	0.206937
	C159	C	-0.034291	0.144467	0.358543
	C160	C	-0.018205	0.117307	0.345239
	C161	C	0.017784	0.135275	0.320642
	C162	C	0.034668	0.178925	0.307959
	C163	C	0.016621	0.205408	0.319900
	C164	C	-0.016666	0.188784	0.346132
	C165	C	-0.046452	0.070914	0.361316
	C166	C	-0.070961	0.117571	0.385212
	N167	N	-0.078582	0.072929	0.384443
	O168	O	-0.090847	0.130113	0.404257
	O169	O	-0.044502	0.037461	0.355862
	C170	C	0.071028	0.188459	0.281049
	C171	C	0.046327	0.117266	0.304977
	N172	N	0.078587	0.151422	0.281904
	O173	O	0.044453	0.081943	0.310644
	O174	O	0.090785	0.220744	0.261826
	C175	C	-0.028032	0.224880	0.354940
	C176	C	0.028076	0.252901	0.311059
	N177	N	0.000018	0.262549	0.332966
	O178	O	0.055000	0.278894	0.289880
	O179	O	-0.054895	0.224013	0.376138
	C180	C	0.144579	-0.034428	0.641370
	C181	C	0.117464	-0.018290	0.654655
	C182	C	0.135434	0.017684	0.679305
	C183	C	0.179058	0.034554	0.692017
	C184	C	0.205486	0.016431	0.680119
	C185	C	0.188656	-0.017260	0.654184
	C186	C	0.071147	-0.046387	0.638420
	C187	C	0.117701	-0.071064	0.614633
	N188	N	0.073124	-0.078556	0.615283
	O189	O	0.130213	-0.091004	0.595615
	O190	O	0.037766	-0.044304	0.643768
	C191	C	0.188678	0.071072	0.718832
	C192	C	0.117483	0.046307	0.694919
	N193	N	0.151652	0.078627	0.717974
	O194	O	0.082181	0.044439	0.689229
	O195	O	0.221010	0.090930	0.737999
	C196	C	0.224970	-0.028132	0.644941
	C197	C	0.252993	0.027945	0.688907
	N198	N	0.262668	-0.000015	0.666877
	O199	O	0.278977	0.054842	0.710130
	O200	O	0.224215	-0.054740	0.623503
	C201	C	0.117259	0.152537	0.515966
	C202	C	0.158290	0.193302	0.516928
	C203	C	0.195846	0.195835	0.500083
	C204	C	0.193418	0.158338	0.483167
	C205	C	0.152694	0.117256	0.483988
	C206	C	0.114177	0.114071	0.499945
	H207	H	0.223185	0.161445	0.470423
	H208	H	0.082617	0.082478	0.499900
	H209	H	0.161311	0.223031	0.529720
	C210	C	0.304373	0.000071	0.666811
	C211	C	0.341810	0.035046	0.649763
	C212	C	0.382843	0.035403	0.650582
	C213	C	0.386022	0.000131	0.666655
	C214	C	0.347611	-0.035171	0.682807
	C215	C	0.306914	-0.034866	0.683790
	H216	H	0.417569	0.000149	0.666592
	H217	H	0.277233	-0.061480	0.696703
	H218	H	0.338695	0.061639	0.636913
	C219	C	-0.035081	0.347572	0.567043
	C220	C	-0.034846	0.306818	0.566079
	C221	C	0.000116	0.304282	0.583001
	C222	C	0.035157	0.341765	0.599989
	C223	C	0.035568	0.382844	0.599159
	C224	C	0.000288	0.386027	0.583128
	H225	H	0.061753	0.338639	0.612805
	H226	H	0.000345	0.417609	0.583176
	H227	H	-0.061538	0.277099	0.553237
	C228	C	0.321345	0.355796	0.474788
	C229	C	0.364648	0.382947	0.488046
	C230	C	0.382656	0.364954	0.512592
	C231	C	0.355841	0.321283	0.525244
	C232	C	0.311240	0.294827	0.513386
	C233	C	0.294383	0.311674	0.487538
	C234	C	0.382886	0.429312	0.471901
	C235	C	0.311583	0.382680	0.448147
	N236	N	0.348695	0.427304	0.448847
	O237	O	0.279090	0.370138	0.429174
	O238	O	0.418382	0.462744	0.477259
	C239	C	0.382727	0.311633	0.551970
	C240	C	0.429275	0.382899	0.528137
	N241	N	0.427372	0.348670	0.551092
	O242	O	0.462772	0.418223	0.522462
	O243	O	0.370198	0.279266	0.571088
	C244	C	0.247136	0.275327	0.478307
	C245	C	0.275187	0.247274	0.522132
	N246	N	0.237519	0.237588	0.500163
	O247	O	0.276084	0.221265	0.543284
	O248	O	0.221264	0.276091	0.456937
	C249	C	-0.034291	0.144467	0.608543
	C250	C	-0.018205	0.117307	0.595239
	C251	C	0.017784	0.135275	0.570642
	C252	C	0.034668	0.178925	0.557959
	C253	C	0.016621	0.205408	0.569900
	C254	C	-0.016666	0.188784	0.596132
	C255	C	-0.046452	0.070914	0.611316
	C256	C	-0.070961	0.117571	0.635212
	N257	N	-0.078582	0.072929	0.634443
	O258	O	-0.090847	0.130113	0.654257
	O259	O	-0.044502	0.037461	0.605862
	C260	C	0.071028	0.188459	0.531049
	C261	C	0.046327	0.117266	0.554977
	N262	N	0.078587	0.151422	0.531904
	O263	O	0.044453	0.081943	0.560644
	O264	O	0.090785	0.220744	0.511826
	C265	C	-0.028032	0.224880	0.604940
	C266	C	0.028076	0.252901	0.561059
	N267	N	0.000018	0.262549	0.582966
	O268	O	0.055000	0.278894	0.539880
	O269	O	-0.054895	0.224013	0.626138
	C270	C	0.144579	-0.034428	0.891370
	C271	C	0.117464	-0.018290	0.904655
	C272	C	0.135434	0.017684	0.929305
	C273	C	0.179058	0.034554	0.942017
	C274	C	0.205486	0.016431	0.930119
	C275	C	0.188656	-0.017260	0.904184
	C276	C	0.071147	-0.046387	0.888420
	C277	C	0.117701	-0.071064	0.864633
	N278	N	0.073124	-0.078556	0.865283
	O279	O	0.130213	-0.091004	0.845615
	O280	O	0.037766	-0.044304	0.893768
	C281	C	0.188678	0.071072	0.968832
	C282	C	0.117483	0.046307	0.944919
	N283	N	0.151652	0.078627	0.967974
	O284	O	0.082181	0.044439	0.939229
	O285	O	0.221010	0.090930	0.987999
	C286	C	0.224970	-0.028132	0.894941
	C287	C	0.252993	0.027945	0.938907
	N288	N	0.262668	-0.000015	0.916877
	O289	O	0.278977	0.054842	0.960130
	O290	O	0.224215	-0.054740	0.873503
	C291	C	0.117259	0.152537	0.765966
	C292	C	0.158290	0.193302	0.766928
	C293	C	0.195846	0.195835	0.750083
	C294	C	0.193418	0.158338	0.733167
	C295	C	0.152694	0.117256	0.733988
	C296	C	0.114177	0.114071	0.749945
	H297	H	0.223185	0.161445	0.720423
	H298	H	0.082617	0.082478	0.749900
	H299	H	0.161311	0.223031	0.779720
	C300	C	0.304373	0.000071	0.916811
	C301	C	0.341810	0.035046	0.899763
	C302	C	0.382843	0.035403	0.900582
	C303	C	0.386022	0.000131	0.916655
	C304	C	0.347611	-0.035171	0.932807
	C305	C	0.306914	-0.034866	0.933790
	H306	H	0.417569	0.000149	0.916592
	H307	H	0.277233	-0.061480	0.946703
	H308	H	0.338695	0.061639	0.886913
	C309	C	-0.035081	0.347572	0.817043
	C310	C	-0.034846	0.306818	0.816079
	C311	C	0.000116	0.304282	0.833001
	C312	C	0.035157	0.341765	0.849989
	C313	C	0.035568	0.382844	0.849159
	C314	C	0.000288	0.386027	0.833128
	H315	H	0.061753	0.338639	0.862805
	H316	H	0.000345	0.417609	0.833176
	H317	H	-0.061538	0.277099	0.803237
	C318	C	0.321345	0.355796	0.724788
	C319	C	0.364648	0.382947	0.738046
	C320	C	0.382656	0.364954	0.762592
	C321	C	0.355841	0.321283	0.775244
	C322	C	0.311240	0.294827	0.763386
	C323	C	0.294383	0.311674	0.737538
	C324	C	0.382886	0.429312	0.721901
	C325	C	0.311583	0.382680	0.698147
	N326	N	0.348695	0.427304	0.698847
	O327	O	0.279090	0.370138	0.679174
	O328	O	0.418382	0.462744	0.727259
	C329	C	0.382727	0.311633	0.801970
	C330	C	0.429275	0.382899	0.778137
	N331	N	0.427372	0.348670	0.801092
	O332	O	0.462772	0.418223	0.772462
	O333	O	0.370198	0.279266	0.821088
	C334	C	0.247136	0.275327	0.728307
	C335	C	0.275187	0.247274	0.772132
	N336	N	0.237519	0.237588	0.750163
	O337	O	0.276084	0.221265	0.793284
	O338	O	0.221264	0.276091	0.706937
	C339	C	-0.034291	0.144467	0.858543
	C340	C	-0.018205	0.117307	0.845239
	C341	C	0.017784	0.135275	0.820642
	C342	C	0.034668	0.178925	0.807959
	C343	C	0.016621	0.205408	0.819900
	C344	C	-0.016666	0.188784	0.846132
	C345	C	-0.046452	0.070914	0.861316
	C346	C	-0.070961	0.117571	0.885212
	N347	N	-0.078582	0.072929	0.884443
	O348	O	-0.090847	0.130113	0.904257
	O349	O	-0.044502	0.037461	0.855862
	C350	C	0.071028	0.188459	0.781049
	C351	C	0.046327	0.117266	0.804977
	N352	N	0.078587	0.151422	0.781904
	O353	O	0.044453	0.081943	0.810644
	O354	O	0.090785	0.220744	0.761826
	C355	C	-0.028032	0.224880	0.854940
	C356	C	0.028076	0.252901	0.811059
	N357	N	0.000018	0.262549	0.832966
	O358	O	0.055000	0.278894	0.789880
	O359	O	-0.054895	0.224013	0.876138
	C360	C	0.144579	0.465572	0.141370
	C361	C	0.117464	0.481710	0.154655
	C362	C	0.135434	0.517684	0.179305
	C363	C	0.179058	0.534554	0.192017
	C364	C	0.205486	0.516431	0.180119
	C365	C	0.188656	0.482740	0.154184
	C366	C	0.071147	0.453613	0.138420
	C367	C	0.117701	0.428936	0.114633
	N368	N	0.073124	0.421444	0.115283
	O369	O	0.130213	0.408996	0.095615
	O370	O	0.037766	0.455696	0.143768
	C371	C	0.188678	0.571072	0.218832
	C372	C	0.117483	0.546307	0.194919
	N373	N	0.151652	0.578627	0.217974
	O374	O	0.082181	0.544439	0.189229
	O375	O	0.221010	0.590930	0.237999
	C376	C	0.224970	0.471868	0.144941
	C377	C	0.252993	0.527945	0.188907
	N378	N	0.262668	0.499985	0.166877
	O379	O	0.278977	0.554842	0.210130
	O380	O	0.224215	0.445260	0.123503
	C381	C	0.117259	0.652537	0.015966
	C382	C	0.158290	0.693302	0.016928
	C383	C	0.195846	0.695835	0.000083
	C384	C	0.193418	0.658338	-0.016833
	C385	C	0.152694	0.617256	-0.016012
	C386	C	0.114177	0.614071	-0.000055
	H387	H	0.223185	0.661445	-0.029577
	H388	H	0.082617	0.582478	-0.000100
	H389	H	0.161311	0.723031	0.029720
	C390	C	0.304373	0.500071	0.166811
	C391	C	0.341810	0.535046	0.149763
	C392	C	0.382843	0.535403	0.150582
	C393	C	0.386022	0.500131	0.166655
	C394	C	0.347611	0.464829	0.182807
	C395	C	0.306914	0.465134	0.183790
	H396	H	0.417569	0.500149	0.166592
	H397	H	0.277233	0.438520	0.196703
	H398	H	0.338695	0.561639	0.136913
	C399	C	-0.035081	0.847572	0.067043
	C400	C	-0.034846	0.806818	0.066079
	C401	C	0.000116	0.804282	0.083001
	C402	C	0.035157	0.841765	0.099989
	C403	C	0.035568	0.882844	0.099159
	C404	C	0.000288	0.886027	0.083128
	H405	H	0.061753	0.838639	0.112805
	H406	H	0.000345	0.917609	0.083176
	H407	H	-0.061538	0.777099	0.053237
	C408	C	0.321345	0.855796	-0.025212
	C409	C	0.364648	0.882947	-0.011954
	C410	C	0.382656	0.864954	0.012592
	C411	C	0.355841	0.821283	0.025244
	C412	C	0.311240	0.794827	0.013386
	C413	C	0.294383	0.811674	-0.012462
	C414	C	0.382886	0.929312	-0.028099
	C415	C	0.311583	0.882680	-0.051853
	N416	N	0.348695	0.927304	-0.051153
	O417	O	0.279090	0.870138	-0.070826
	O418	O	0.418382	0.962744	-0.022741
	C419	C	0.382727	0.811633	0.051970
	C420	C	0.429275	0.882899	0.028137
	N421	N	0.427372	0.848670	0.051092
	O422	O	0.462772	0.918223	0.022462
	O423	O	0.370198	0.779266	0.071088
	C424	C	0.247136	0.775327	-0.021693
	C425	C	0.275187	0.747274	0.022132
	N426	N	0.237519	0.737588	0.000163
	O427	O	0.276084	0.721265	0.043284
	O428	O	0.221264	0.776091	-0.043063
	C429	C	-0.034291	0.644467	0.108543
	C430	C	-0.018205	0.617307	0.095239
	C431	C	0.017784	0.635275	0.070642
	C432	C	0.034668	0.678925	0.057959
	C433	C	0.016621	0.705408	0.069900
	C434	C	-0.016666	0.688784	0.096132
	C435	C	-0.046452	0.570914	0.111316
	C436	C	-0.070961	0.617571	0.135212
	N437	N	-0.078582	0.572929	0.134443
	O438	O	-0.090847	0.630113	0.154257
	O439	O	-0.044502	0.537461	0.105862
	C440	C	0.071028	0.688459	0.031049
	C441	C	0.046327	0.617266	0.054977
	N442	N	0.078587	0.651422	0.031904
	O443	O	0.044453	0.581943	0.060644
	O444	O	0.090785	0.720744	0.011826
	C445	C	-0.028032	0.724880	0.104940
	C446	C	0.028076	0.752901	0.061059
	N447	N	0.000018	0.762549	0.082966
	O448	O	0.055000	0.778894	0.039880
	O449	O	-0.054895	0.724013	0.126138
	C450	C	0.144579	0.465572	0.391370
	C451	C	0.117464	0.481710	0.404655
	C452	C	0.135434	0.517684	0.429305
	C453	C	0.179058	0.534554	0.442017
	C454	C	0.205486	0.516431	0.430119
	C455	C	0.188656	0.482740	0.404184
	C456	C	0.071147	0.453613	0.388420
	C457	C	0.117701	0.428936	0.364633
	N458	N	0.073124	0.421444	0.365283
	O459	O	0.130213	0.408996	0.345615
	O460	O	0.037766	0.455696	0.393768
	C461	C	0.188678	0.571072	0.468832
	C462	C	0.117483	0.546307	0.444919
	N463	N	0.151652	0.578627	0.467974
	O464	O	0.082181	0.544439	0.439229
	O465	O	0.221010	0.590930	0.487999
	C466	C	0.224970	0.471868	0.394941
	C467	C	0.252993	0.527945	0.438907
	N468	N	0.262668	0.499985	0.416877
	O469	O	0.278977	0.554842	0.460130
	O470	O	0.224215	0.445260	0.373503
	C471	C	0.117259	0.652537	0.265966
	C472	C	0.158290	0.693302	0.266928
	C473	C	0.195846	0.695835	0.250083
	C474	C	0.193418	0.658338	0.233167
	C475	C	0.152694	0.617256	0.233988
	C476	C	0.114177	0.614071	0.249945
	H477	H	0.223185	0.661445	0.220423
	H478	H	0.082617	0.582478	0.249900
	H479	H	0.161311	0.723031	0.279720
	C480	C	0.304373	0.500071	0.416811
	C481	C	0.341810	0.535046	0.399763
	C482	C	0.382843	0.535403	0.400582
	C483	C	0.386022	0.500131	0.416655
	C484	C	0.347611	0.464829	0.432807
	C485	C	0.306914	0.465134	0.433790
	H486	H	0.417569	0.500149	0.416592
	H487	H	0.277233	0.438520	0.446703
	H488	H	0.338695	0.561639	0.386913
	C489	C	-0.035081	0.847572	0.317043
	C490	C	-0.034846	0.806818	0.316079
	C491	C	0.000116	0.804282	0.333001
	C492	C	0.035157	0.841765	0.349989
	C493	C	0.035568	0.882844	0.349159
	C494	C	0.000288	0.886027	0.333128
	H495	H	0.061753	0.838639	0.362805
	H496	H	0.000345	0.917609	0.333176
	H497	H	-0.061538	0.777099	0.303237
	C498	C	0.321345	0.855796	0.224788
	C499	C	0.364648	0.882947	0.238046
	C500	C	0.382656	0.864954	0.262592
	C501	C	0.355841	0.821283	0.275244
	C502	C	0.311240	0.794827	0.263386
	C503	C	0.294383	0.811674	0.237538
	C504	C	0.382886	0.929312	0.221901
	C505	C	0.311583	0.882680	0.198147
	N506	N	0.348695	0.927304	0.198847
	O507	O	0.279090	0.870138	0.179174
	O508	O	0.418382	0.962744	0.227259
	C509	C	0.382727	0.811633	0.301970
	C510	C	0.429275	0.882899	0.278137
	N511	N	0.427372	0.848670	0.301092
	O512	O	0.462772	0.918223	0.272462
	O513	O	0.370198	0.779266	0.321088
	C514	C	0.247136	0.775327	0.228307
	C515	C	0.275187	0.747274	0.272132
	N516	N	0.237519	0.737588	0.250163
	O517	O	0.276084	0.721265	0.293284
	O518	O	0.221264	0.776091	0.206937
	C519	C	-0.034291	0.644467	0.358543
	C520	C	-0.018205	0.617307	0.345239
	C521	C	0.017784	0.635275	0.320642
	C522	C	0.034668	0.678925	0.307959
	C523	C	0.016621	0.705408	0.319900
	C524	C	-0.016666	0.688784	0.346132
	C525	C	-0.046452	0.570914	0.361316
	C526	C	-0.070961	0.617571	0.385212
	N527	N	-0.078582	0.572929	0.384443
	O528	O	-0.090847	0.630113	0.404257
	O529	O	-0.044502	0.537461	0.355862
	C530	C	0.071028	0.688459	0.281049
	C531	C	0.046327	0.617266	0.304977
	N532	N	0.078587	0.651422	0.281904
	O533	O	0.044453	0.581943	0.310644
	O534	O	0.090785	0.720744	0.261826
	C535	C	-0.028032	0.724880	0.354940
	C536	C	0.028076	0.752901	0.311059
	N537	N	0.000018	0.762549	0.332966
	O538	O	0.055000	0.778894	0.289880
	O539	O	-0.054895	0.724013	0.376138
	C540	C	0.144579	0.465572	0.641370
	C541	C	0.117464	0.481710	0.654655
	C542	C	0.135434	0.517684	0.679305
	C543	C	0.179058	0.534554	0.692017
	C544	C	0.205486	0.516431	0.680119
	C545	C	0.188656	0.482740	0.654184
	C546	C	0.071147	0.453613	0.638420
	C547	C	0.117701	0.428936	0.614633
	N548	N	0.073124	0.421444	0.615283
	O549	O	0.130213	0.408996	0.595615
	O550	O	0.037766	0.455696	0.643768
	C551	C	0.188678	0.571072	0.718832
	C552	C	0.117483	0.546307	0.694919
	N553	N	0.151652	0.578627	0.717974
	O554	O	0.082181	0.544439	0.689229
	O555	O	0.221010	0.590930	0.737999
	C556	C	0.224970	0.471868	0.644941
	C557	C	0.252993	0.527945	0.688907
	N558	N	0.262668	0.499985	0.666877
	O559	O	0.278977	0.554842	0.710130
	O560	O	0.224215	0.445260	0.623503
	C561	C	0.117259	0.652537	0.515966
	C562	C	0.158290	0.693302	0.516928
	C563	C	0.195846	0.695835	0.500083
	C564	C	0.193418	0.658338	0.483167
	C565	C	0.152694	0.617256	0.483988
	C566	C	0.114177	0.614071	0.499945
	H567	H	0.223185	0.661445	0.470423
	H568	H	0.082617	0.582478	0.499900
	H569	H	0.161311	0.723031	0.529720
	C570	C	0.304373	0.500071	0.666811
	C571	C	0.341810	0.535046	0.649763
	C572	C	0.382843	0.535403	0.650582
	C573	C	0.386022	0.500131	0.666655
	C574	C	0.347611	0.464829	0.682807
	C575	C	0.306914	0.465134	0.683790
	H576	H	0.417569	0.500149	0.666592
	H577	H	0.277233	0.438520	0.696703
	H578	H	0.338695	0.561639	0.636913
	C579	C	-0.035081	0.847572	0.567043
	C580	C	-0.034846	0.806818	0.566079
	C581	C	0.000116	0.804282	0.583001
	C582	C	0.035157	0.841765	0.599989
	C583	C	0.035568	0.882844	0.599159
	C584	C	0.000288	0.886027	0.583128
	H585	H	0.061753	0.838639	0.612805
	H586	H	0.000345	0.917609	0.583176
	H587	H	-0.061538	0.777099	0.553237
	C588	C	0.321345	0.855796	0.474788
	C589	C	0.364648	0.882947	0.488046
	C590	C	0.382656	0.864954	0.512592
	C591	C	0.355841	0.821283	0.525244
	C592	C	0.311240	0.794827	0.513386
	C593	C	0.294383	0.811674	0.487538
	C594	C	0.382886	0.929312	0.471901
	C595	C	0.311583	0.882680	0.448147
	N596	N	0.348695	0.927304	0.448847
	O597	O	0.279090	0.870138	0.429174
	O598	O	0.418382	0.962744	0.477259
	C599	C	0.382727	0.811633	0.551970
	C600	C	0.429275	0.882899	0.528137
	N601	N	0.427372	0.848670	0.551092
	O602	O	0.462772	0.918223	0.522462
	O603	O	0.370198	0.779266	0.571088
	C604	C	0.247136	0.775327	0.478307
	C605	C	0.275187	0.747274	0.522132
	N606	N	0.237519	0.737588	0.500163
	O607	O	0.276084	0.721265	0.543284
	O608	O	0.221264	0.776091	0.456937
	C609	C	-0.034291	0.644467	0.608543
	C610	C	-0.018205	0.617307	0.595239
	C611	C	0.017784	0.635275	0.570642
	C612	C	0.034668	0.678925	0.557959
	C613	C	0.016621	0.705408	0.569900
	C614	C	-0.016666	0.688784	0.596132
	C615	C	-0.046452	0.570914	0.611316
	C616	C	-0.070961	0.617571	0.635212
	N617	N	-0.078582	0.572929	0.634443
	O618	O	-0.090847	0.630113	0.654257
	O619	O	-0.044502	0.537461	0.605862
	C620	C	0.071028	0.688459	0.531049
	C621	C	0.046327	0.617266	0.554977
	N622	N	0.078587	0.651422	0.531904
	O623	O	0.044453	0.581943	0.560644
	O624	O	0.090785	0.720744	0.511826
	C625	C	-0.028032	0.724880	0.604940
	C626	C	0.028076	0.752901	0.561059
	N627	N	0.000018	0.762549	0.582966
	O628	O	0.055000	0.778894	0.539880
	O629	O	-0.054895	0.724013	0.626138
	C630	C	0.144579	0.465572	0.891370
	C631	C	0.117464	0.481710	0.904655
	C632	C	0.135434	0.517684	0.929305
	C633	C	0.179058	0.534554	0.942017
	C634	C	0.205486	0.516431	0.930119
	C635	C	0.188656	0.482740	0.904184
	C636	C	0.071147	0.453613	0.888420
	C637	C	0.117701	0.428936	0.864633
	N638	N	0.073124	0.421444	0.865283
	O639	O	0.130213	0.408996	0.845615
	O640	O	0.037766	0.455696	0.893768
	C641	C	0.188678	0.571072	0.968832
	C642	C	0.117483	0.546307	0.944919
	N643	N	0.151652	0.578627	0.967974
	O644	O	0.082181	0.544439	0.939229
	O645	O	0.221010	0.590930	0.987999
	C646	C	0.224970	0.471868	0.894941
	C647	C	0.252993	0.527945	0.938907
	N648	N	0.262668	0.499985	0.916877
	O649	O	0.278977	0.554842	0.960130
	O650	O	0.224215	0.445260	0.873503
	C651	C	0.117259	0.652537	0.765966
	C652	C	0.158290	0.693302	0.766928
	C653	C	0.195846	0.695835	0.750083
	C654	C	0.193418	0.658338	0.733167
	C655	C	0.152694	0.617256	0.733988
	C656	C	0.114177	0.614071	0.749945
	H657	H	0.223185	0.661445	0.720423
	H658	H	0.082617	0.582478	0.749900
	H659	H	0.161311	0.723031	0.779720
	C660	C	0.304373	0.500071	0.916811
	C661	C	0.341810	0.535046	0.899763
	C662	C	0.382843	0.535403	0.900582
	C663	C	0.386022	0.500131	0.916655
	C664	C	0.347611	0.464829	0.932807
	C665	C	0.306914	0.465134	0.933790
	H666	H	0.417569	0.500149	0.916592
	H667	H	0.277233	0.438520	0.946703
	H668	H	0.338695	0.561639	0.886913
	C669	C	-0.035081	0.847572	0.817043
	C670	C	-0.034846	0.806818	0.816079
	C671	C	0.000116	0.804282	0.833001
	C672	C	0.035157	0.841765	0.849989
	C673	C	0.035568	0.882844	0.849159
	C674	C	0.000288	0.886027	0.833128
	H675	H	0.061753	0.838639	0.862805
	H676	H	0.000345	0.917609	0.833176
	H677	H	-0.061538	0.777099	0.803237
	C678	C	0.321345	0.855796	0.724788
	C679	C	0.364648	0.882947	0.738046
	C680	C	0.382656	0.864954	0.762592
	C681	C	0.355841	0.821283	0.775244
	C682	C	0.311240	0.794827	0.763386
	C683	C	0.294383	0.811674	0.737538
	C684	C	0.382886	0.929312	0.721901
	C685	C	0.311583	0.882680	0.698147
	N686	N	0.348695	0.927304	0.698847
	O687	O	0.279090	0.870138	0.679174
	O688	O	0.418382	0.962744	0.727259
	C689	C	0.382727	0.811633	0.801970
	C690	C	0.429275	0.882899	0.778137
	N691	N	0.427372	0.848670	0.801092
	O692	O	0.462772	0.918223	0.772462
	O693	O	0.370198	0.779266	0.821088
	C694	C	0.247136	0.775327	0.728307
	C695	C	0.275187	0.747274	0.772132
	N696	N	0.237519	0.737588	0.750163
	O697	O	0.276084	0.721265	0.793284
	O698	O	0.221264	0.776091	0.706937
	C699	C	-0.034291	0.644467	0.858543
	C700	C	-0.018205	0.617307	0.845239
	C701	C	0.017784	0.635275	0.820642
	C702	C	0.034668	0.678925	0.807959
	C703	C	0.016621	0.705408	0.819900
	C704	C	-0.016666	0.688784	0.846132
	C705	C	-0.046452	0.570914	0.861316
	C706	C	-0.070961	0.617571	0.885212
	N707	N	-0.078582	0.572929	0.884443
	O708	O	-0.090847	0.630113	0.904257
	O709	O	-0.044502	0.537461	0.855862
	C710	C	0.071028	0.688459	0.781049
	C711	C	0.046327	0.617266	0.804977
	N712	N	0.078587	0.651422	0.781904
	O713	O	0.044453	0.581943	0.810644
	O714	O	0.090785	0.720744	0.761826
	C715	C	-0.028032	0.724880	0.854940
	C716	C	0.028076	0.752901	0.811059
	N717	N	0.000018	0.762549	0.832966
	O718	O	0.055000	0.778894	0.789880
	O719	O	-0.054895	0.724013	0.876138
	C720	C	0.644579	-0.034428	0.141370
	C721	C	0.617464	-0.018290	0.154655
	C722	C	0.635434	0.017684	0.179305
	C723	C	0.679058	0.034554	0.192017
	C724	C	0.705486	0.016431	0.180119
	C725	C	0.688656	-0.017260	0.154184
	C726	C	0.571147	-0.046387	0.138420
	C727	C	0.617701	-0.071064	0.114633
	N728	N	0.573124	-0.078556	0.115283
	O729	O	0.630213	-0.091004	0.095615
	O730	O	0.537766	-0.044304	0.143768
	C731	C	0.688678	0.071072	0.218832
	C732	C	0.617483	0.046307	0.194919
	N733	N	0.651652	0.078627	0.217974
	O734	O	0.582181	0.044439	0.189229
	O735	O	0.721010	0.090930	0.237999
	C736	C	0.724970	-0.028132	0.144941
	C737	C	0.752993	0.027945	0.188907
	N738	N	0.762668	-0.000015	0.166877
	O739	O	0.778977	0.054842	0.210130
	O740	O	0.724215	-0.054740	0.123503
	C741	C	0.617259	0.152537	0.015966
	C742	C	0.658290	0.193302	0.016928
	C743	C	0.695846	0.195835	0.000083
	C744	C	0.693418	0.158338	-0.016833
	C745	C	0.652694	0.117256	-0.016012
	C746	C	0.614177	0.114071	-0.000055
	H747	H	0.723185	0.161445	-0.029577
	H748	H	0.582617	0.082478	-0.000100
	H749	H	0.661311	0.223031	0.029720
	C750	C	0.804373	0.000071	0.166811
	C751	C	0.841810	0.035046	0.149763
	C752	C	0.882843	0.035403	0.150582
	C753	C	0.886022	0.000131	0.166655
	C754	C	0.847611	-0.035171	0.182807
	C755	C	0.806914	-0.034866	0.183790
	H756	H	0.917569	0.000149	0.166592
	H757	H	0.777233	-0.061480	0.196703
	H758	H	0.838695	0.061639	0.136913
	C759	C	0.464919	0.347572	0.067043
	C760	C	0.465154	0.306818	0.066079
	C761	C	0.500116	0.304282	0.083001
	C762	C	0.535157	0.341765	0.099989
	C763	C	0.535568	0.382844	0.099159
	C764	C	0.500288	0.386027	0.083128
	H765	H	0.561753	0.338639	0.112805
	H766	H	0.500345	0.417609	0.083176
	H767	H	0.438462	0.277099	0.053237
	C768	C	0.821345	0.355796	-0.025212
	C769	C	0.864648	0.382947	-0.011954
	C770	C	0.882656	0.364954	0.012592
	C771	C	0.855841	0.321283	0.025244
	C772	C	0.811240	0.294827	0.013386
	C773	C	0.794383	0.311674	-0.012462
	C774	C	0.882886	0.429312	-0.028099
	C775	C	0.811583	0.382680	-0.051853
	N776	N	0.848695	0.427304	-0.051153
	O777	O	0.779090	0.370138	-0.070826
	O778	O	0.918382	0.462744	-0.022741
	C779	C	0.882727	0.311633	0.051970
	C780	C	0.929275	0.382899	0.028137
	N781	N	0.927372	0.348670	0.051092
	O782	O	0.962772	0.418223	0.022462
	O783	O	0.870198	0.279266	0.071088
	C784	C	0.747136	0.275327	-0.021693
	C785	C	0.775187	0.247274	0.022132
	N786	N	0.737519	0.237588	0.000163
	O787	O	0.776084	0.221265	0.043284
	O788	O	0.721264	0.276091	-0.043063
	C789	C	0.465709	0.144467	0.108543
	C790	C	0.481795	0.117307	0.095239
	C791	C	0.517784	0.135275	0.070642
	C792	C	0.534668	0.178925	0.057959
	C793	C	0.516621	0.205408	0.069900
	C794	C	0.483334	0.188784	0.096132
	C795	C	0.453548	0.070914	0.111316
	C796	C	0.429039	0.117571	0.135212
	N797	N	0.421418	0.072929	0.134443
	O798	O	0.409153	0.130113	0.154257
	O799	O	0.455498	0.037461	0.105862
	C800	C	0.571028	0.188459	0.031049
	C801	C	0.546327	0.117266	0.054977
	N802	N	0.578587	0.151422	0.031904
	O803	O	0.544453	0.081943	0.060644
	O804	O	0.590785	0.220744	0.011826
	C805	C	0.471968	0.224880	0.104940
	C806	C	0.528076	0.252901	0.061059
	N807	N	0.500018	0.262549	0.082966
	O808	O	0.555000	0.278894	0.039880
	O809	O	0.445105	0.224013	0.126138
	C810	C	0.644579	-0.034428	0.391370
	C811	C	0.617464	-0.018290	0.404655
	C812	C	0.635434	0.017684	0.429305
	C813	C	0.679058	0.034554	0.442017
	C814	C	0.705486	0.016431	0.430119
	C815	C	0.688656	-0.017260	0.404184
	C816	C	0.571147	-0.046387	0.388420
	C817	C	0.617701	-0.071064	0.364633
	N818	N	0.573124	-0.078556	0.365283
	O819	O	0.630213	-0.091004	0.345615
	O820	O	0.537766	-0.044304	0.393768
	C821	C	0.688678	0.071072	0.468832
	C822	C	0.617483	0.046307	0.444919
	N823	N	0.651652	0.078627	0.467974
	O824	O	0.582181	0.044439	0.439229
	O825	O	0.721010	0.090930	0.487999
	C826	C	0.724970	-0.028132	0.394941
	C827	C	0.752993	0.027945	0.438907
	N828	N	0.762668	-0.000015	0.416877
	O829	O	0.778977	0.054842	0.460130
	O830	O	0.724215	-0.054740	0.373503
	C831	C	0.617259	0.152537	0.265966
	C832	C	0.658290	0.193302	0.266928
	C833	C	0.695846	0.195835	0.250083
	C834	C	0.693418	0.158338	0.233167
	C835	C	0.652694	0.117256	0.233988
	C836	C	0.614177	0.114071	0.249945
	H837	H	0.723185	0.161445	0.220423
	H838	H	0.582617	0.082478	0.249900
	H839	H	0.661311	0.223031	0.279720
	C840	C	0.804373	0.000071	0.416811
	C841	C	0.841810	0.035046	0.399763
	C842	C	0.882843	0.035403	0.400582
	C843	C	0.886022	0.000131	0.416655
	C844	C	0.847611	-0.035171	0.432807
	C845	C	0.806914	-0.034866	0.433790
	H846	H	0.917569	0.000149	0.416592
	H847	H	0.777233	-0.061480	0.446703
	H848	H	0.838695	0.061639	0.386913
	C849	C	0.464919	0.347572	0.317043
	C850	C	0.465154	0.306818	0.316079
	C851	C	0.500116	0.304282	0.333001
	C852	C	0.535157	0.341765	0.349989
	C853	C	0.535568	0.382844	0.349159
	C854	C	0.500288	0.386027	0.333128
	H855	H	0.561753	0.338639	0.362805
	H856	H	0.500345	0.417609	0.333176
	H857	H	0.438462	0.277099	0.303237
	C858	C	0.821345	0.355796	0.224788
	C859	C	0.864648	0.382947	0.238046
	C860	C	0.882656	0.364954	0.262592
	C861	C	0.855841	0.321283	0.275244
	C862	C	0.811240	0.294827	0.263386
	C863	C	0.794383	0.311674	0.237538
	C864	C	0.882886	0.429312	0.221901
	C865	C	0.811583	0.382680	0.198147
	N866	N	0.848695	0.427304	0.198847
	O867	O	0.779090	0.370138	0.179174
	O868	O	0.918382	0.462744	0.227259
	C869	C	0.882727	0.311633	0.301970
	C870	C	0.929275	0.382899	0.278137
	N871	N	0.927372	0.348670	0.301092
	O872	O	0.962772	0.418223	0.272462
	O873	O	0.870198	0.279266	0.321088
	C874	C	0.747136	0.275327	0.228307
	C875	C	0.775187	0.247274	0.272132
	N876	N	0.737519	0.237588	0.250163
	O877	O	0.776084	0.221265	0.293284
	O878	O	0.721264	0.276091	0.206937
	C879	C	0.465709	0.144467	0.358543
	C880	C	0.481795	0.117307	0.345239
	C881	C	0.517784	0.135275	0.320642
	C882	C	0.534668	0.178925	0.307959
	C883	C	0.516621	0.205408	0.319900
	C884	C	0.483334	0.188784	0.346132
	C885	C	0.453548	0.070914	0.361316
	C886	C	0.429039	0.117571	0.385212
	N887	N	0.421418	0.072929	0.384443
	O888	O	0.409153	0.130113	0.404257
	O889	O	0.455498	0.037461	0.355862
	C890	C	0.571028	0.188459	0.281049
	C891	C	0.546327	0.117266	0.304977
	N892	N	0.578587	0.151422	0.281904
	O893	O	0.544453	0.081943	0.310644
	O894	O	0.590785	0.220744	0.261826
	C895	C	0.471968	0.224880	0.354940
	C896	C	0.528076	0.252901	0.311059
	N897	N	0.500018	0.262549	0.332966
	O898	O	0.555000	0.278894	0.289880
	O899	O	0.445105	0.224013	0.376138
	C900	C	0.644579	-0.034428	0.641370
	C901	C	0.617464	-0.018290	0.654655
	C902	C	0.635434	0.017684	0.679305
	C903	C	0.679058	0.034554	0.692017
	C904	C	0.705486	0.016431	0.680119
	C905	C	0.688656	-0.017260	0.654184
	C906	C	0.571147	-0.046387	0.638420
	C907	C	0.617701	-0.071064	0.614633
	N908	N	0.573124	-0.078556	0.615283
	O909	O	0.630213	-0.091004	0.595615
	O910	O	0.537766	-0.044304	0.643768
	C911	C	0.688678	0.071072	0.718832
	C912	C	0.617483	0.046307	0.694919
	N913	N	0.651652	0.078627	0.717974
	O914	O	0.582181	0.044439	0.689229
	O915	O	0.721010	0.090930	0.737999
	C916	C	0.724970	-0.028132	0.644941
	C917	C	0.752993	0.027945	0.688907
	N918	N	0.762668	-0.000015	0.666877
	O919	O	0.778977	0.054842	0.710130
	O920	O	0.724215	-0.054740	0.623503
	C921	C	0.617259	0.152537	0.515966
	C922	C	0.658290	0.193302	0.516928
	C923	C	0.695846	0.195835	0.500083
	C924	C	0.693418	0.158338	0.483167
	C925	C	0.652694	0.117256	0.483988
	C926	C	0.614177	0.114071	0.499945
	H927	H	0.723185	0.161445	0.470423
	H928	H	0.582617	0.082478	0.499900
	H929	H	0.661311	0.223031	0.529720
	C930	C	0.804373	0.000071	0.666811
	C931	C	0.841810	0.035046	0.649763
	C932	C	0.882843	0.035403	0.650582
	C933	C	0.886022	0.000131	0.666655
	C934	C	0.847611	-0.035171	0.682807
	C935	C	0.806914	-0.034866	0.683790
	H936	H	0.917569	0.000149	0.666592
	H937	H	0.777233	-0.061480	0.696703
	H938	H	0.838695	0.061639	0.636913
	C939	C	0.464919	0.347572	0.567043
	C940	C	0.465154	0.306818	0.566079
	C941	C	0.500116	0.304282	0.583001
	C942	C	0.535157	0.341765	0.599989
	C943	C	0.535568	0.382844	0.599159
	C944	C	0.500288	0.386027	0.583128
	H945	H	0.561753	0.338639	0.612805
	H946	H	0.500345	0.417609	0.583176
	H947	H	0.438462	0.277099	0.553237
	C948	C	0.821345	0.355796	0.474788
	C949	C	0.864648	0.382947	0.488046
	C950	C	0.882656	0.364954	0.512592
	C951	C	0.855841	0.321283	0.525244
	C952	C	0.811240	0.294827	0.513386
	C953	C	0.794383	0.311674	0.487538
	C954	C	0.882886	0.429312	0.471901
	C955	C	0.811583	0.382680	0.448147
	N956	N	0.848695	0.427304	0.448847
	O957	O	0.779090	0.370138	0.429174
	O958	O	0.918382	0.462744	0.477259
	C959	C	0.882727	0.311633	0.551970
	C960	C	0.929275	0.382899	0.528137
	N961	N	0.927372	0.348670	0.551092
	O962	O	0.962772	0.418223	0.522462
	O963	O	0.870198	0.279266	0.571088
	C964	C	0.747136	0.275327	0.478307
	C965	C	0.775187	0.247274	0.522132
	N966	N	0.737519	0.237588	0.500163
	O967	O	0.776084	0.221265	0.543284
	O968	O	0.721264	0.276091	0.456937
	C969	C	0.465709	0.144467	0.608543
	C970	C	0.481795	0.117307	0.595239
	C971	C	0.517784	0.135275	0.570642
	C972	C	0.534668	0.178925	0.557959
	C973	C	0.516621	0.205408	0.569900
	C974	C	0.483334	0.188784	0.596132
	C975	C	0.453548	0.070914	0.611316
	C976	C	0.429039	0.117571	0.635212
	N977	N	0.421418	0.072929	0.634443
	O978	O	0.409153	0.130113	0.654257
	O979	O	0.455498	0.037461	0.605862
	C980	C	0.571028	0.188459	0.531049
	C981	C	0.546327	0.117266	0.554977
	N982	N	0.578587	0.151422	0.531904
	O983	O	0.544453	0.081943	0.560644
	O984	O	0.590785	0.220744	0.511826
	C985	C	0.471968	0.224880	0.604940
	C986	C	0.528076	0.252901	0.561059
	N987	N	0.500018	0.262549	0.582966
	O988	O	0.555000	0.278894	0.539880
	O989	O	0.445105	0.224013	0.626138
	C990	C	0.644579	-0.034428	0.891370
	C991	C	0.617464	-0.018290	0.904655
	C992	C	0.635434	0.017684	0.929305
	C993	C	0.679058	0.034554	0.942017
	C994	C	0.705486	0.016431	0.930119
	C995	C	0.688656	-0.017260	0.904184
	C996	C	0.571147	-0.046387	0.888420
	C997	C	0.617701	-0.071064	0.864633
	N998	N	0.573124	-0.078556	0.865283
	O999	O	0.630213	-0.091004	0.845615
	O1000	O	0.537766	-0.044304	0.893768
	C1001	C	0.688678	0.071072	0.968832
	C1002	C	0.617483	0.046307	0.944919
	N1003	N	0.651652	0.078627	0.967974
	O1004	O	0.582181	0.044439	0.939229
	O1005	O	0.721010	0.090930	0.987999
	C1006	C	0.724970	-0.028132	0.894941
	C1007	C	0.752993	0.027945	0.938907
	N1008	N	0.762668	-0.000015	0.916877
	O1009	O	0.778977	0.054842	0.960130
	O1010	O	0.724215	-0.054740	0.873503
	C1011	C	0.617259	0.152537	0.765966
	C1012	C	0.658290	0.193302	0.766928
	C1013	C	0.695846	0.195835	0.750083
	C1014	C	0.693418	0.158338	0.733167
	C1015	C	0.652694	0.117256	0.733988
	C1016	C	0.614177	0.114071	0.749945
	H1017	H	0.723185	0.161445	0.720423
	H1018	H	0.582617	0.082478	0.749900
	H1019	H	0.661311	0.223031	0.779720
	C1020	C	0.804373	0.000071	0.916811
	C1021	C	0.841810	0.035046	0.899763
	C1022	C	0.882843	0.035403	0.900582
	C1023	C	0.886022	0.000131	0.916655
	C1024	C	0.847611	-0.035171	0.932807
	C1025	C	0.806914	-0.034866	0.933790
	H1026	H	0.917569	0.000149	0.916592
	H1027	H	0.777233	-0.061480	0.946703
	H1028	H	0.838695	0.061639	0.886913
	C1029	C	0.464919	0.347572	0.817043
	C1030	C	0.465154	0.306818	0.816079
	C1031	C	0.500116	0.304282	0.833001
	C1032	C	0.535157	0.341765	0.849989
	C1033	C	0.535568	0.382844	0.849159
	C1034	C	0.500288	0.386027	0.833128
	H1035	H	0.561753	0.338639	0.862805
	H1036	H	0.500345	0.417609	0.833176
	H1037	H	0.438462	0.277099	0.803237
	C1038	C	0.821345	0.355796	0.724788
	C1039	C	0.864648	0.382947	0.738046
	C1040	C	0.882656	0.364954	0.762592
	C1041	C	0.855841	0.321283	0.775244
	C1042	C	0.811240	0.294827	0.763386
	C1043	C	0.794383	0.311674	0.737538
	C1044	C	0.882886	0.429312	0.721901
	C1045	C	0.811583	0.382680	0.698147
	N1046	N	0.848695	0.427304	0.698847
	O1047	O	0.779090	0.370138	0.679174
	O1048	O	0.918382	0.462744	0.727259
	C1049	C	0.882727	0.311633	0.801970
	C1050	C	0.929275	0.382899	0.778137
	N1051	N	0.927372	0.348670	0.801092
	O1052	O	0.962772	0.418223	0.772462
	O1053	O	0.870198	0.279266	0.821088
	C1054	C	0.747136	0.275327	0.728307
	C1055	C	0.775187	0.247274	0.772132
	N1056	N	0.737519	0.237588	0.750163
	O1057	O	0.776084	0.221265	0.793284
	O1058	O	0.721264	0.276091	0.706937
	C1059	C	0.465709	0.144467	0.858543
	C1060	C	0.481795	0.117307	0.845239
	C1061	C	0.517784	0.135275	0.820642
	C1062	C	0.534668	0.178925	0.807959
	C1063	C	0.516621	0.205408	0.819900
	C1064	C	0.483334	0.188784	0.846132
	C1065	C	0.453548	0.070914	0.861316
	C1066	C	0.429039	0.117571	0.885212
	N1067	N	0.421418	0.072929	0.884443
	O1068	O	0.409153	0.130113	0.904257
	O1069	O	0.455498	0.037461	0.855862
	C1070	C	0.571028	0.188459	0.781049
	C1071	C	0.546327	0.117266	0.804977
	N1072	N	0.578587	0.151422	0.781904
	O1073	O	0.544453	0.081943	0.810644
	O1074	O	0.590785	0.220744	0.761826
	C1075	C	0.471968	0.224880	0.854940
	C1076	C	0.528076	0.252901	0.811059
	N1077	N	0.500018	0.262549	0.832966
	O1078	O	0.555000	0.278894	0.789880
	O1079	O	0.445105	0.224013	0.876138
	C1080	C	0.644579	0.465572	0.141370
	C1081	C	0.617464	0.481710	0.154655
	C1082	C	0.635434	0.517684	0.179305
	C1083	C	0.679058	0.534554	0.192017
	C1084	C	0.705486	0.516431	0.180119
	C1085	C	0.688656	0.482740	0.154184
	C1086	C	0.571147	0.453613	0.138420
	C1087	C	0.617701	0.428936	0.114633
	N1088	N	0.573124	0.421444	0.115283
	O1089	O	0.630213	0.408996	0.095615
	O1090	O	0.537766	0.455696	0.143768
	C1091	C	0.688678	0.571072	0.218832
	C1092	C	0.617483	0.546307	0.194919
	N1093	N	0.651652	0.578627	0.217974
	O1094	O	0.582181	0.544439	0.189229
	O1095	O	0.721010	0.590930	0.237999
	C1096	C	0.724970	0.471868	0.144941
	C1097	C	0.752993	0.527945	0.188907
	N1098	N	0.762668	0.499985	0.166877
	O1099	O	0.778977	0.554842	0.210130
	O1100	O	0.724215	0.445260	0.123503
	C1101	C	0.617259	0.652537	0.015966
	C1102	C	0.658290	0.693302	0.016928
	C1103	C	0.695846	0.695835	0.000083
	C1104	C	0.693418	0.658338	-0.016833
	C1105	C	0.652694	0.617256	-0.016012
	C1106	C	0.614177	0.614071	-0.000055
	H1107	H	0.723185	0.661445	-0.029577
	H1108	H	0.582617	0.582478	-0.000100
	H1109	H	0.661311	0.723031	0.029720
	C1110	C	0.804373	0.500071	0.166811
	C1111	C	0.841810	0.535046	0.149763
	C1112	C	0.882843	0.535403	0.150582
	C1113	C	0.886022	0.500131	0.166655
	C1114	C	0.847611	0.464829	0.182807
	C1115	C	0.806914	0.465134	0.183790
	H1116	H	0.917569	0.500149	0.166592
	H1117	H	0.777233	0.438520	0.196703
	H1118	H	0.838695	0.561639	0.136913
	C1119	C	0.464919	0.847572	0.067043
	C1120	C	0.465154	0.806818	0.066079
	C1121	C	0.500116	0.804282	0.083001
	C1122	C	0.535157	0.841765	0.099989
	C1123	C	0.535568	0.882844	0.099159
	C1124	C	0.500288	0.886027	0.083128
	H1125	H	0.561753	0.838639	0.112805
	H1126	H	0.500345	0.917609	0.083176
	H1127	H	0.438462	0.777099	0.053237
	C1128	C	0.821345	0.855796	-0.025212
	C1129	C	0.864648	0.882947	-0.011954
	C1130	C	0.882656	0.864954	0.012592
	C1131	C	0.855841	0.821283	0.025244
	C1132	C	0.811240	0.794827	0.013386
	C1133	C	0.794383	0.811674	-0.012462
	C1134	C	0.882886	0.929312	-0.028099
	C1135	C	0.811583	0.882680	-0.051853
	N1136	N	0.848695	0.927304	-0.051153
	O1137	O	0.779090	0.870138	-0.070826
	O1138	O	0.918382	0.962744	-0.022741
	C1139	C	0.882727	0.811633	0.051970
	C1140	C	0.929275	0.882899	0.028137
	N1141	N	0.927372	0.848670	0.051092
	O1142	O	0.962772	0.918223	0.022462
	O1143	O	0.870198	0.779266	0.071088
	C1144	C	0.747136	0.775327	-0.021693
	C1145	C	0.775187	0.747274	0.022132
	N1146	N	0.737519	0.737588	0.000163
	O1147	O	0.776084	0.721265	0.043284
	O1148	O	0.721264	0.776091	-0.043063
	C1149	C	0.465709	0.644467	0.108543
	C1150	C	0.481795	0.617307	0.095239
	C1151	C	0.517784	0.635275	0.070642
	C1152	C	0.534668	0.678925	0.057959
	C1153	C	0.516621	0.705408	0.069900
	C1154	C	0.483334	0.688784	0.096132
	C1155	C	0.453548	0.570914	0.111316
	C1156	C	0.429039	0.617571	0.135212
	N1157	N	0.421418	0.572929	0.134443
	O1158	O	0.409153	0.630113	0.154257
	O1159	O	0.455498	0.537461	0.105862
	C1160	C	0.571028	0.688459	0.031049
	C1161	C	0.546327	0.617266	0.054977
	N1162	N	0.578587	0.651422	0.031904
	O1163	O	0.544453	0.581943	0.060644
	O1164	O	0.590785	0.720744	0.011826
	C1165	C	0.471968	0.724880	0.104940
	C1166	C	0.528076	0.752901	0.061059
	N1167	N	0.500018	0.762549	0.082966
	O1168	O	0.555000	0.778894	0.039880
	O1169	O	0.445105	0.724013	0.126138
	C1170	C	0.644579	0.465572	0.391370
	C1171	C	0.617464	0.481710	0.404655
	C1172	C	0.635434	0.517684	0.429305
	C1173	C	0.679058	0.534554	0.442017
	C1174	C	0.705486	0.516431	0.430119
	C1175	C	0.688656	0.482740	0.404184
	C1176	C	0.571147	0.453613	0.388420
	C1177	C	0.617701	0.428936	0.364633
	N1178	N	0.573124	0.421444	0.365283
	O1179	O	0.630213	0.408996	0.345615
	O1180	O	0.537766	0.455696	0.393768
	C1181	C	0.688678	0.571072	0.468832
	C1182	C	0.617483	0.546307	0.444919
	N1183	N	0.651652	0.578627	0.467974
	O1184	O	0.582181	0.544439	0.439229
	O1185	O	0.721010	0.590930	0.487999
	C1186	C	0.724970	0.471868	0.394941
	C1187	C	0.752993	0.527945	0.438907
	N1188	N	0.762668	0.499985	0.416877
	O1189	O	0.778977	0.554842	0.460130
	O1190	O	0.724215	0.445260	0.373503
	C1191	C	0.617259	0.652537	0.265966
	C1192	C	0.658290	0.693302	0.266928
	C1193	C	0.695846	0.695835	0.250083
	C1194	C	0.693418	0.658338	0.233167
	C1195	C	0.652694	0.617256	0.233988
	C1196	C	0.614177	0.614071	0.249945
	H1197	H	0.723185	0.661445	0.220423
	H1198	H	0.582617	0.582478	0.249900
	H1199	H	0.661311	0.723031	0.279720
	C1200	C	0.804373	0.500071	0.416811
	C1201	C	0.841810	0.535046	0.399763
	C1202	C	0.882843	0.535403	0.400582
	C1203	C	0.886022	0.500131	0.416655
	C1204	C	0.847611	0.464829	0.432807
	C1205	C	0.806914	0.465134	0.433790
	H1206	H	0.917569	0.500149	0.416592
	H1207	H	0.777233	0.438520	0.446703
	H1208	H	0.838695	0.561639	0.386913
	C1209	C	0.464919	0.847572	0.317043
	C1210	C	0.465154	0.806818	0.316079
	C1211	C	0.500116	0.804282	0.333001
	C1212	C	0.535157	0.841765	0.349989
	C1213	C	0.535568	0.882844	0.349159
	C1214	C	0.500288	0.886027	0.333128
	H1215	H	0.561753	0.838639	0.362805
	H1216	H	0.500345	0.917609	0.333176
	H1217	H	0.438462	0.777099	0.303237
	C1218	C	0.821345	0.855796	0.224788
	C1219	C	0.864648	0.882947	0.238046
	C1220	C	0.882656	0.864954	0.262592
	C1221	C	0.855841	0.821283	0.275244
	C1222	C	0.811240	0.794827	0.263386
	C1223	C	0.794383	0.811674	0.237538
	C1224	C	0.882886	0.929312	0.221901
	C1225	C	0.811583	0.882680	0.198147
	N1226	N	0.848695	0.927304	0.198847
	O1227	O	0.779090	0.870138	0.179174
	O1228	O	0.918382	0.962744	0.227259
	C1229	C	0.882727	0.811633	0.301970
	C1230	C	0.929275	0.882899	0.278137
	N1231	N	0.927372	0.848670	0.301092
	O1232	O	0.962772	0.918223	0.272462
	O1233	O	0.870198	0.779266	0.321088
	C1234	C	0.747136	0.775327	0.228307
	C1235	C	0.775187	0.747274	0.272132
	N1236	N	0.737519	0.737588	0.250163
	O1237	O	0.776084	0.721265	0.293284
	O1238	O	0.721264	0.776091	0.206937
	C1239	C	0.465709	0.644467	0.358543
	C1240	C	0.481795	0.617307	0.345239
	C1241	C	0.517784	0.635275	0.320642
	C1242	C	0.534668	0.678925	0.307959
	C1243	C	0.516621	0.705408	0.319900
	C1244	C	0.483334	0.688784	0.346132
	C1245	C	0.453548	0.570914	0.361316
	C1246	C	0.429039	0.617571	0.385212
	N1247	N	0.421418	0.572929	0.384443
	O1248	O	0.409153	0.630113	0.404257
	O1249	O	0.455498	0.537461	0.355862
	C1250	C	0.571028	0.688459	0.281049
	C1251	C	0.546327	0.617266	0.304977
	N1252	N	0.578587	0.651422	0.281904
	O1253	O	0.544453	0.581943	0.310644
	O1254	O	0.590785	0.720744	0.261826
	C1255	C	0.471968	0.724880	0.354940
	C1256	C	0.528076	0.752901	0.311059
	N1257	N	0.500018	0.762549	0.332966
	O1258	O	0.555000	0.778894	0.289880
	O1259	O	0.445105	0.724013	0.376138
	C1260	C	0.644579	0.465572	0.641370
	C1261	C	0.617464	0.481710	0.654655
	C1262	C	0.635434	0.517684	0.679305
	C1263	C	0.679058	0.534554	0.692017
	C1264	C	0.705486	0.516431	0.680119
	C1265	C	0.688656	0.482740	0.654184
	C1266	C	0.571147	0.453613	0.638420
	C1267	C	0.617701	0.428936	0.614633
	N1268	N	0.573124	0.421444	0.615283
	O1269	O	0.630213	0.408996	0.595615
	O1270	O	0.537766	0.455696	0.643768
	C1271	C	0.688678	0.571072	0.718832
	C1272	C	0.617483	0.546307	0.694919
	N1273	N	0.651652	0.578627	0.717974
	O1274	O	0.582181	0.544439	0.689229
	O1275	O	0.721010	0.590930	0.737999
	C1276	C	0.724970	0.471868	0.644941
	C1277	C	0.752993	0.527945	0.688907
	N1278	N	0.762668	0.499985	0.666877
	O1279	O	0.778977	0.554842	0.710130
	O1280	O	0.724215	0.445260	0.623503
	C1281	C	0.617259	0.652537	0.515966
	C1282	C	0.658290	0.693302	0.516928
	C1283	C	0.695846	0.695835	0.500083
	C1284	C	0.693418	0.658338	0.483167
	C1285	C	0.652694	0.617256	0.483988
	C1286	C	0.614177	0.614071	0.499945
	H1287	H	0.723185	0.661445	0.470423
	H1288	H	0.582617	0.582478	0.499900
	H1289	H	0.661311	0.723031	0.529720
	C1290	C	0.804373	0.500071	0.666811
	C1291	C	0.841810	0.535046	0.649763
	C1292	C	0.882843	0.535403	0.650582
	C1293	C	0.886022	0.500131	0.666655
	C1294	C	0.847611	0.464829	0.682807
	C1295	C	0.806914	0.465134	0.683790
	H1296	H	0.917569	0.500149	0.666592
	H1297	H	0.777233	0.438520	0.696703
	H1298	H	0.838695	0.561639	0.636913
	C1299	C	0.464919	0.847572	0.567043
	C1300	C	0.465154	0.806818	0.566079
	C1301	C	0.500116	0.804282	0.583001
	C1302	C	0.535157	0.841765	0.599989
	C1303	C	0.535568	0.882844	0.599159
	C1304	C	0.500288	0.886027	0.583128
	H1305	H	0.561753	0.838639	0.612805
	H1306	H	0.500345	0.917609	0.583176
	H1307	H	0.438462	0.777099	0.553237
	C1308	C	0.821345	0.855796	0.474788
	C1309	C	0.864648	0.882947	0.488046
	C1310	C	0.882656	0.864954	0.512592
	C1311	C	0.855841	0.821283	0.525244
	C1312	C	0.811240	0.794827	0.513386
	C1313	C	0.794383	0.811674	0.487538
	C1314	C	0.882886	0.929312	0.471901
	C1315	C	0.811583	0.882680	0.448147
	N1316	N	0.848695	0.927304	0.448847
	O1317	O	0.779090	0.870138	0.429174
	O1318	O	0.918382	0.962744	0.477259
	C1319	C	0.882727	0.811633	0.551970
	C1320	C	0.929275	0.882899	0.528137
	N1321	N	0.927372	0.848670	0.551092
	O1322	O	0.962772	0.918223	0.522462
	O1323	O	0.870198	0.779266	0.571088
	C1324	C	0.747136	0.775327	0.478307
	C1325	C	0.775187	0.747274	0.522132
	N1326	N	0.737519	0.737588	0.500163
	O1327	O	0.776084	0.721265	0.543284
	O1328	O	0.721264	0.776091	0.456937
	C1329	C	0.465709	0.644467	0.608543
	C1330	C	0.481795	0.617307	0.595239
	C1331	C	0.517784	0.635275	0.570642
	C1332	C	0.534668	0.678925	0.557959
	C1333	C	0.516621	0.705408	0.569900
	C1334	C	0.483334	0.688784	0.596132
	C1335	C	0.453548	0.570914	0.611316
	C1336	C	0.429039	0.617571	0.635212
	N1337	N	0.421418	0.572929	0.634443
	O1338	O	0.409153	0.630113	0.654257
	O1339	O	0.455498	0.537461	0.605862
	C1340	C	0.571028	0.688459	0.531049
	C1341	C	0.546327	0.617266	0.554977
	N1342	N	0.578587	0.651422	0.531904
	O1343	O	0.544453	0.581943	0.560644
	O1344	O	0.590785	0.720744	0.511826
	C1345	C	0.471968	0.724880	0.604940
	C1346	C	0.528076	0.752901	0.561059
	N1347	N	0.500018	0.762549	0.582966
	O1348	O	0.555000	0.778894	0.539880
	O1349	O	0.445105	0.724013	0.626138
	C1350	C	0.644579	0.465572	0.891370
	C1351	C	0.617464	0.481710	0.904655
	C1352	C	0.635434	0.517684	0.929305
	C1353	C	0.679058	0.534554	0.942017
	C1354	C	0.705486	0.516431	0.930119
	C1355	C	0.688656	0.482740	0.904184
	C1356	C	0.571147	0.453613	0.888420
	C1357	C	0.617701	0.428936	0.864633
	N1358	N	0.573124	0.421444	0.865283
	O1359	O	0.630213	0.408996	0.845615
	O1360	O	0.537766	0.455696	0.893768
	C1361	C	0.688678	0.571072	0.968832
	C1362	C	0.617483	0.546307	0.944919
	N1363	N	0.651652	0.578627	0.967974
	O1364	O	0.582181	0.544439	0.939229
	O1365	O	0.721010	0.590930	0.987999
	C1366	C	0.724970	0.471868	0.894941
	C1367	C	0.752993	0.527945	0.938907
	N1368	N	0.762668	0.499985	0.916877
	O1369	O	0.778977	0.554842	0.960130
	O1370	O	0.724215	0.445260	0.873503
	C1371	C	0.617259	0.652537	0.765966
	C1372	C	0.658290	0.693302	0.766928
	C1373	C	0.695846	0.695835	0.750083
	C1374	C	0.693418	0.658338	0.733167
	C1375	C	0.652694	0.617256	0.733988
	C1376	C	0.614177	0.614071	0.749945
	H1377	H	0.723185	0.661445	0.720423
	H1378	H	0.582617	0.582478	0.749900
	H1379	H	0.661311	0.723031	0.779720
	C1380	C	0.804373	0.500071	0.916811
	C1381	C	0.841810	0.535046	0.899763
	C1382	C	0.882843	0.535403	0.900582
	C1383	C	0.886022	0.500131	0.916655
	C1384	C	0.847611	0.464829	0.932807
	C1385	C	0.806914	0.465134	0.933790
	H1386	H	0.917569	0.500149	0.916592
	H1387	H	0.777233	0.438520	0.946703
	H1388	H	0.838695	0.561639	0.886913
	C1389	C	0.464919	0.847572	0.817043
	C1390	C	0.465154	0.806818	0.816079
	C1391	C	0.500116	0.804282	0.833001
	C1392	C	0.535157	0.841765	0.849989
	C1393	C	0.535568	0.882844	0.849159
	C1394	C	0.500288	0.886027	0.833128
	H1395	H	0.561753	0.838639	0.862805
	H1396	H	0.500345	0.917609	0.833176
	H1397	H	0.438462	0.777099	0.803237
	C1398	C	0.821345	0.855796	0.724788
	C1399	C	0.864648	0.882947	0.738046
	C1400	C	0.882656	0.864954	0.762592
	C1401	C	0.855841	0.821283	0.775244
	C1402	C	0.811240	0.794827	0.763386
	C1403	C	0.794383	0.811674	0.737538
	C1404	C	0.882886	0.929312	0.721901
	C1405	C	0.811583	0.882680	0.698147
	N1406	N	0.848695	0.927304	0.698847
	O1407	O	0.779090	0.870138	0.679174
	O1408	O	0.918382	0.962744	0.727259
	C1409	C	0.882727	0.811633	0.801970
	C1410	C	0.929275	0.882899	0.778137
	N1411	N	0.927372	0.848670	0.801092
	O1412	O	0.962772	0.918223	0.772462
	O1413	O	0.870198	0.779266	0.821088
	C1414	C	0.747136	0.775327	0.728307
	C1415	C	0.775187	0.747274	0.772132
	N1416	N	0.737519	0.737588	0.750163
	O1417	O	0.776084	0.721265	0.793284
	O1418	O	0.721264	0.776091	0.706937
	C1419	C	0.465709	0.644467	0.858543
	C1420	C	0.481795	0.617307	0.845239
	C1421	C	0.517784	0.635275	0.820642
	C1422	C	0.534668	0.678925	0.807959
	C1423	C	0.516621	0.705408	0.819900
	C1424	C	0.483334	0.688784	0.846132
	C1425	C	0.453548	0.570914	0.861316
	C1426	C	0.429039	0.617571	0.885212
	N1427	N	0.421418	0.572929	0.884443
	O1428	O	0.409153	0.630113	0.904257
	O1429	O	0.455498	0.537461	0.855862
	C1430	C	0.571028	0.688459	0.781049
	C1431	C	0.546327	0.617266	0.804977
	N1432	N	0.578587	0.651422	0.781904
	O1433	O	0.544453	0.581943	0.810644
	O1434	O	0.590785	0.720744	0.761826
	C1435	C	0.471968	0.724880	0.854940
	C1436	C	0.528076	0.752901	0.811059
	N1437	N	0.500018	0.762549	0.832966
	O1438	O	0.555000	0.778894	0.789880
	O1439	O	0.445105	0.724013	0.876138
	N1440	N	0.704432	0.861742	0.542743
	N1441	N	0.690604	0.837784	0.520210
	N1442	N	0.566253	0.174696	0.158300
	N1443	N	0.545965	0.137794	0.159301
	N1444	N	0.924876	0.934770	0.131114
	N1445	N	0.903751	0.898649	0.136876
	N1446	N	0.698608	0.215828	0.615915
	N1447	N	0.713487	0.205106	0.594626
	N1448	N	0.661194	0.048620	0.823609
	N1449	N	0.696144	0.057697	0.817848
	N1450	N	0.562036	0.758794	0.424289
	N1451	N	0.565757	0.740778	0.401241
	N1452	N	0.381218	0.075717	0.546260
	N1453	N	0.349181	0.052206	0.533140
	N1454	N	0.477726	0.079502	0.251111
	N1455	N	0.470119	0.098594	0.231337
	N1456	N	0.636609	0.315007	0.375462
	N1457	N	0.613949	0.288521	0.356662
	C1458	C	0.374800	0.428425	0.086291
	O1459	O	0.365002	0.456277	0.084263
	O1460	O	0.384598	0.400573	0.088320
	C1461	C	0.924359	0.554677	0.250434
	O1462	O	0.899165	0.521637	0.265285
	O1463	O	0.949553	0.587717	0.235584
	C1464	C	0.857200	0.422535	0.592462
	O1465	O	0.863922	0.455373	0.577882
	O1466	O	0.850478	0.389697	0.607015
	C1467	C	0.801494	0.993416	0.802753
	O1468	O	0.804028	0.967199	0.784440
	O1469	O	0.798960	1.019632	0.821040
	C1470	C	0.277104	0.494066	0.541066
	O1471	O	0.260795	0.513592	0.553617
	O1472	O	0.293441	0.474539	0.528542
	C1473	C	0.603037	0.991017	0.539281
	O1474	O	0.611759	0.980593	0.511878
	O1475	O	0.594345	1.001440	0.566683
	C1476	C	0.637229	0.132097	0.877765
	O1477	O	0.611925	0.145199	0.879983
	O1478	O	0.662534	0.118995	0.875519
	C1479	C	0.216083	0.128365	0.858342
	O1480	O	0.226770	0.114612	0.882796
	O1481	O	0.205383	0.142152	0.833862
	C1482	C	0.197831	0.965878	0.033110
	O1483	O	0.206826	0.996282	0.052072
	O1484	O	0.188818	0.935441	0.014147
	C1485	C	0.575259	0.902452	0.010523
	O1486	O	0.605159	0.937896	0.003273
	O1487	O	0.545372	0.866974	0.017745
	C1488	C	0.401920	0.582158	0.510336
	O1489	O	0.398316	0.594170	0.538848
	O1490	O	0.405537	0.570113	0.481798
	C1491	C	0.496404	0.248543	0.466352
	O1492	O	0.480664	0.257782	0.490346
	O1493	O	0.512189	0.239338	0.442358
	C1494	C	0.496835	0.740698	0.948096
	O1495	O	0.513492	0.718782	0.943200
	O1496	O	0.480207	0.762615	0.952992
	C1497	C	0.274026	0.283235	0.112287
	O1498	O	0.279991	0.270903	0.139906
	O1499	O	0.268043	0.295534	0.084695
	C1500	C	0.402476	0.171685	0.748923
	O1501	O	0.399613	0.138675	0.760095
	O1502	O	0.405328	0.204729	0.737751
	C1503	C	0.571481	0.888282	0.470464
	O1504	O	0.558591	0.880408	0.500084
	O1505	O	0.584341	0.896156	0.440843
	C1506	C	0.720924	0.997981	0.288062
	O1507	O	0.740997	1.017147	0.313679
	O1508	O	0.700851	0.978814	0.262445
	C1509	C	0.915930	0.783570	0.902516
	O1510	O	0.878699	0.754535	0.904247
	O1511	O	0.953162	0.812604	0.900785
	C1512	C	0.139667	0.281740	0.848388
	O1513	O	0.143387	0.254277	0.832888
	O1514	O	0.135947	0.309203	0.863915
	C1515	C	0.761825	0.497606	0.050449
	O1516	O	0.745921	0.508498	0.073226
	O1517	O	0.777746	0.486748	0.027673
	C1518	C	0.789562	0.442993	0.813952
	O1519	O	0.764078	0.411511	0.797533
	O1520	O	0.815016	0.474475	0.830372
	C1521	C	0.656084	0.302334	0.958862
	O1522	O	0.638539	0.290255	0.930946
	O1523	O	0.673646	0.314446	0.986806
	C1524	C	0.078059	0.147617	0.679024
	O1525	O	0.056054	0.134135	0.704884
	O1526	O	0.100093	0.161098	0.653137
	C1527	C	0.935491	0.590014	0.983073
	O1528	O	0.971881	0.618706	0.976662
	O1529	O	0.899130	0.561321	0.989484
	C1530	C	0.070103	0.868280	0.715299
	O1531	O	0.041614	0.831043	0.718978
	O1532	O	0.098575	0.905483	0.711647
	C1533	C	0.166876	0.853320	0.301668
	O1534	O	0.160935	0.818655	0.311812
	O1535	O	0.172846	0.887985	0.291524
	C1536	C	0.606708	0.898870	0.754306
	O1537	O	0.645281	0.912443	0.754901
	O1538	O	0.568090	0.885263	0.753711
	C1539	C	0.983314	0.199744	0.714406
	O1540	O	0.960381	0.193858	0.739347
	O1541	O	1.006247	0.205630	0.689493
	C1542	C	0.827744	0.959818	0.313354
	O1543	O	0.807866	0.924018	0.300694
	O1544	O	0.847651	0.995618	0.326014
	C1545	C	0.790242	0.123264	0.332587
	O1546	O	0.759109	0.115987	0.350008
	O1547	O	0.821387	0.130508	0.315193
	C1548	C	0.363480	0.021561	0.283761
	O1549	O	0.344067	-0.009990	0.265447
	O1550	O	0.382939	0.053145	0.302074
	C1551	C	0.179474	0.815581	0.608151
	O1552	O	0.145163	0.799388	0.623300
	O1553	O	0.213756	0.831773	0.593030
	C1554	C	0.703542	0.484146	0.286736
	O1555	O	0.689724	0.498852	0.308269
	O1556	O	0.717378	0.469473	0.265231
	C1557	C	0.257705	0.115249	0.355337
	O1558	O	0.270944	0.146868	0.336969
	O1559	O	0.244420	0.083597	0.373677
	C1560	C	0.393405	0.707109	0.990214
	O1561	O	0.365227	0.712770	0.978339
	O1562	O	0.421584	0.701448	1.002062
	C1563	C	0.135941	0.285063	0.640098
	O1564	O	0.165075	0.278439	0.632686
	O1565	O	0.106790	0.291653	0.647510
	C1566	C	0.128247	0.157059	0.890857
	O1567	O	0.101319	0.162009	0.875763
	O1568	O	0.155191	0.152143	0.905951
	C1569	C	0.433491	0.298046	0.697499
	O1570	O	0.415483	0.307418	0.719573
	O1571	O	0.451499	0.288674	0.675399
	C1572	C	0.165611	0.318789	0.412657
	O1573	O	0.162790	0.286197	0.400457
	O1574	O	0.168462	0.351381	0.424884
	C1575	C	0.074664	0.878029	0.968032
	O1576	O	0.103444	0.901781	0.948556
	O1577	O	0.045912	0.854278	0.987536
	C1578	C	0.316035	0.390851	0.837081
	O1579	O	0.297432	0.353399	0.827721
	O1580	O	0.334650	0.428268	0.846413
	C1581	C	0.626724	0.789184	0.689817
	O1582	O	0.637982	0.813786	0.714244
	O1583	O	0.615449	0.764549	0.665390
	C1584	C	0.358391	0.927746	0.353443
	O1585	O	0.365378	0.959130	0.336455
	O1586	O	0.351374	0.896362	0.370404
	C1587	C	0.607816	0.563181	0.843383
	O1588	O	0.617916	0.599518	0.852472
	O1589	O	0.597761	0.526878	0.834267
	C1590	C	0.667840	0.304555	0.839353
	O1591	O	0.693212	0.291588	0.836594
	O1592	O	0.642451	0.317489	0.842139
	C1593	C	0.435366	0.859406	0.422936
	O1594	O	0.461087	0.862903	0.444955
	O1595	O	0.409644	0.855908	0.400917
	C1596	C	0.168147	0.326198	0.093784
	O1597	O	0.130363	0.307265	0.102035
	O1598	O	0.205947	0.345165	0.085507
	C1599	C	0.225141	0.015936	0.298287
	O1600	O	0.262441	0.024343	0.299098
	O1601	O	0.187841	0.007528	0.297475
	C1602	C	0.439805	0.294316	0.941442
	O1603	O	0.471678	0.295318	0.929512
	O1604	O	0.407961	0.293314	0.953371
	C1605	C	0.648356	0.819592	0.153079
	O1606	O	0.639628	0.792056	0.131195
	O1607	O	0.657037	0.847095	0.174963
	C1608	C	0.092831	0.983430	0.288873
	O1609	O	0.099459	0.996455	0.318494
	O1610	O	0.086173	0.970404	0.259253
	C1611	C	0.838540	0.607920	0.772808
	O1612	O	0.819331	0.627533	0.768859
	O1613	O	0.857733	0.588274	0.776731
	C1614	C	0.139309	0.823254	0.506847
	O1615	O	0.152683	0.801794	0.520643
	O1616	O	0.125935	0.844715	0.493024
	C1617	C	0.177265	0.869990	0.814277
	O1618	O	0.171536	0.838436	0.830345
	O1619	O	0.182981	0.901577	0.798236
	C1620	C	0.264920	0.258526	0.379520
	O1621	O	0.281670	0.289165	0.360016
	O1622	O	0.248199	0.227887	0.399050
	C1623	C	0.360741	0.499760	0.789904
	O1624	O	0.338078	0.462310	0.781302
	O1625	O	0.383387	0.537177	0.798506
	C1626	C	0.337911	0.194013	0.873328
	O1627	O	0.350922	0.221415	0.895780
	O1628	O	0.324882	0.166578	0.850876
	C1629	C	0.748146	0.684293	0.886313
	O1630	O	0.761736	0.722113	0.892940
	O1631	O	0.734556	0.646473	0.879712
	C1632	C	0.201268	0.499342	0.289712
	O1633	O	0.228963	0.494973	0.275294
	O1634	O	0.173589	0.503744	0.304103
	C1635	C	0.668013	0.307179	0.081801
	O1636	O	0.702713	0.330564	0.068330
	O1637	O	0.633314	0.283794	0.095272
	C1638	C	0.661477	0.137688	0.340783
	O1639	O	0.669083	0.108317	0.343191
	O1640	O	0.653854	0.167026	0.338349
	C1641	C	0.691504	0.840192	0.979799
	O1642	O	0.720926	0.842267	0.996868
	O1643	O	0.662066	0.838083	0.962703
	C1644	C	0.208916	0.004404	0.538848
	O1645	O	0.193950	-0.019320	0.514015
	O1646	O	0.223911	0.028128	0.563680
	C1647	C	0.842313	0.033464	0.042551
	O1648	O	0.865931	0.049793	0.067248
	O1649	O	0.818724	0.017134	0.017826
	C1650	C	0.252108	0.913885	0.557648
	O1651	O	0.220939	0.896886	0.538658
	O1652	O	0.283261	0.930851	0.576637
	C1653	C	0.922629	0.070454	0.736669
	O1654	O	0.898669	0.043090	0.757038
	O1655	O	0.946559	0.097817	0.716300
	C1656	C	0.060170	0.383917	0.225683
	O1657	O	0.035974	0.372358	0.250353
	O1658	O	0.084383	0.395509	0.200986
	C1659	C	0.363462	0.932261	0.082342
	O1660	O	0.357278	0.943749	0.054426
	O1661	O	0.369658	0.920740	0.110231
	C1662	C	0.160793	0.153924	0.373839
	O1663	O	0.162613	0.138621	0.401377
	O1664	O	0.158944	0.169228	0.346329
	C1665	C	0.818580	0.153521	0.113910
	O1666	O	0.791164	0.154482	0.131736
	O1667	O	0.845980	0.152525	0.096084
	C1668	C	0.348643	0.005170	0.788579
	O1669	O	0.366406	0.035000	0.808813
	O1670	O	0.330852	-0.024661	0.768372
	C1671	C	0.493063	0.856652	0.700637
	O1672	O	0.464426	0.854069	0.719113
	O1673	O	0.521687	0.859269	0.682162
	C1674	C	0.462128	0.125146	0.472060
	O1675	O	0.448702	0.142619	0.491293
	O1676	O	0.475553	0.107673	0.452854
	C1677	C	0.863073	0.674582	0.676238
	O1678	O	0.838485	0.661797	0.651784
	O1679	O	0.887673	0.687332	0.700664
	C1680	C	0.301352	0.600207	0.830724
	O1681	O	0.275377	0.577977	0.852635
	O1682	O	0.327340	0.622403	0.808840
	C1683	C	0.193492	0.450154	0.033624
	O1684	O	0.175985	0.417220	0.016636
	O1685	O	0.211015	0.483122	0.050585
	C1686	C	0.398711	0.567761	0.009035
	O1687	O	0.406874	0.573528	0.039683
	O1688	O	0.390547	0.561994	-0.021640
	C1689	C	0.225560	0.009763	0.790310
	O1690	O	0.232892	0.019818	0.820580
	O1691	O	0.218183	-0.000326	0.760040
	C1692	C	0.916539	0.531304	0.763584
	O1693	O	0.881131	0.502884	0.772619
	O1694	O	0.951993	0.559758	0.754522
	C1695	C	0.366606	0.559767	0.278513
	O1696	O	0.359295	0.535233	0.254438
	O1697	O	0.373900	0.584266	0.302588
	C1698	C	0.523726	0.431262	0.722629
	O1699	O	0.495430	0.399647	0.708103
	O1700	O	0.552022	0.462877	0.737183
	C1701	C	0.933554	0.801132	0.199119
	O1702	O	0.963743	0.805708	0.181672
	O1703	O	0.903335	0.796556	0.216567
	C1704	C	0.902165	0.244462	0.470572
	O1705	O	0.910315	0.216870	0.461402
	O1706	O	0.893968	0.272021	0.479715
	C1707	C	0.061026	0.865691	0.242373
	O1708	O	0.024747	0.841189	0.252680
	O1709	O	0.097306	0.890194	0.232040
	C1710	C	0.268882	0.391856	0.306321
	O1711	O	0.279689	0.365731	0.313922
	O1712	O	0.258092	0.418016	0.298747
	C1713	C	0.168412	0.498762	0.544853
	O1714	O	0.171895	0.482836	0.518181
	O1715	O	0.164941	0.514655	0.571552
	C1716	C	0.850300	0.657353	0.926564
	O1717	O	0.827969	0.637411	0.902056
	O1718	O	0.872660	0.677295	0.951045
	C1719	C	0.673731	0.317411	0.643642
	O1720	O	0.666536	0.334382	0.667933
	O1721	O	0.680926	0.300440	0.619323
	C1722	C	0.773306	0.246737	0.895807
	O1723	O	0.744395	0.238447	0.875411
	O1724	O	0.802246	0.255028	0.916204
	C1725	C	0.830264	0.977551	0.545529
	O1726	O	0.834500	0.999621	0.570713
	O1727	O	0.826027	0.955481	0.520345
	C1728	C	0.812210	0.817715	0.877440
	O1729	O	0.837458	0.822834	0.900433
	O1730	O	0.786961	0.812596	0.854474
	C1731	C	0.278538	0.793417	0.367834
	O1732	O	0.278132	0.811254	0.341270
	O1733	O	0.278898	0.775547	0.394398
	C1734	C	0.786917	0.457069	0.548748
	O1735	O	0.772512	0.420141	0.558568
	O1736	O	0.801321	0.493996	0.538929
	C1737	C	0.383960	0.884974	0.881389
	O1738	O	0.379369	0.891125	0.851201
	O1739	O	0.388563	0.878788	0.911551
	C1740	C	0.461942	0.839122	0.954561
	O1741	O	0.430807	0.817666	0.972820
	O1742	O	0.493107	0.860579	0.936302
	C1743	C	0.924820	0.275925	0.952073
	O1744	O	0.891268	0.253082	0.967275
	O1745	O	0.958356	0.298735	0.936843
	C1746	C	0.302085	0.672789	0.597737
	O1747	O	0.324221	0.670202	0.575150
	O1748	O	0.279966	0.675409	0.620351
	C1749	C	0.041226	0.111961	0.415632
	O1750	O	0.071235	0.131458	0.395885
	O1751	O	0.011229	0.092431	0.435379
	C1752	C	0.567761	0.612910	0.168092
	O1753	O	0.539827	0.606076	0.189084
	O1754	O	0.595694	0.619745	0.147101
	C1755	C	0.985800	0.727754	0.970251
	O1756	O	0.962832	0.698871	0.989943
	O1757	O	1.008785	0.756670	0.950558
	C1758	C	0.824065	0.647720	0.429320
	O1759	O	0.796113	0.626937	0.408220
	O1760	O	0.852005	0.668537	0.450392
	C1761	C	0.247653	0.256349	0.622488
	O1762	O	0.244057	0.232500	0.646157
	O1763	O	0.251267	0.280231	0.598819
	C1764	C	0.994479	0.253317	0.218975
	O1765	O	1.014449	0.238010	0.205530
	O1766	O	0.974493	0.268590	0.232419
	C1767	C	0.351302	0.154971	0.970819
	O1768	O	0.385160	0.161295	0.983154
	O1769	O	0.317426	0.148612	0.958484
	C1770	C	0.023610	0.342732	0.456127
	O1771	O	0.050244	0.365638	0.434865
	O1772	O	-0.003054	0.319826	0.477362
	C1773	C	0.876099	0.178237	0.228550
	O1774	O	0.859682	0.200687	0.226332
	O1775	O	0.892528	0.155753	0.230796
	C1776	C	0.490902	0.695382	0.716191
	O1777	O	0.486881	0.668526	0.737345
	O1778	O	0.494905	0.722204	0.695065
	C1779	C	0.104419	0.241977	0.186216
	O1780	O	0.124520	0.280841	0.190409
	O1781	O	0.084335	0.203146	0.182023
	C1782	C	0.157539	0.315613	0.745839
	O1783	O	0.185157	0.317588	0.765234
	O1784	O	0.129920	0.313637	0.726471
	C1785	C	0.707730	0.986789	0.531301
	O1786	O	0.712285	1.003021	0.559704
	O1787	O	0.703205	0.970557	0.502898
	C1788	C	0.896021	0.805878	0.407409
	O1789	O	0.920792	0.832937	0.387229
	O1790	O	0.871238	0.778852	0.427616
	C1791	C	0.505270	0.632670	0.961026
	O1792	O	0.504181	0.637458	0.992053
	O1793	O	0.506329	0.627881	0.930026
	C1794	C	0.517313	0.741891	0.213483
	O1795	O	0.489198	0.721045	0.234420
	O1796	O	0.545457	0.762738	0.192546
	C1797	C	0.359468	0.214067	0.424207
	O1798	O	0.341075	0.176684	0.414794
	O1799	O	0.377908	0.251485	0.433621
	C1800	C	0.849479	0.686673	0.232987
	O1801	O	0.879241	0.693747	0.252030
	O1802	O	0.819687	0.679599	0.213943
	C1803	C	0.051362	0.353555	0.738914
	O1804	O	0.080818	0.388289	0.729636
	O1805	O	0.021876	0.318822	0.748165
	C1806	C	0.259116	0.388064	0.592435
	O1807	O	0.229719	0.356584	0.578666
	O1808	O	0.288558	0.419577	0.606231
	C1809	C	0.377845	0.937706	0.577828
	O1810	O	0.382629	0.915544	0.599116
	O1811	O	0.373062	0.959869	0.556512
	C1812	C	0.186524	0.627768	0.842247
	O1813	O	0.169392	0.643587	0.825368
	O1814	O	0.203669	0.611915	0.859127
	C1815	C	0.566181	0.871980	0.214484
	O1816	O	0.537408	0.851977	0.235124
	O1817	O	0.594983	0.891982	0.193817
	C1818	C	0.514781	0.212729	0.699041
	O1819	O	0.528569	0.236982	0.674452
	O1820	O	0.500994	0.188476	0.723657
	C1821	C	0.574406	0.406143	0.983938
	O1822	O	0.600784	0.429352	0.962622
	O1823	O	0.548074	0.382967	1.005254
	C1824	C	0.180688	0.331143	0.969656
	O1825	O	0.147165	0.306821	0.954967
	O1826	O	0.214228	0.355499	0.984317
	C1827	C	0.669467	0.500427	0.780518
	O1828	O	0.656057	0.505921	0.807785
	O1829	O	0.682830	0.494899	0.753251
	C1830	C	0.790348	0.763454	0.648484
	O1831	O	0.809458	0.759931	0.673046
	O1832	O	0.771192	0.766943	0.623922
	C1833	C	0.998047	0.679823	0.460807
	O1834	O	1.017402	0.701780	0.435974
	O1835	O	0.978691	0.657866	0.485639
	C1836	C	0.692578	0.884475	0.255790
	O1837	O	0.657053	0.880896	0.254762
	O1838	O	0.728149	0.888089	0.256791
	C1839	C	0.369342	0.694233	0.752358
	O1840	O	0.337713	0.695980	0.743486
	O1841	O	0.400924	0.692451	0.761204
	C1842	C	0.775908	0.171556	0.643939
	O1843	O	0.770214	0.135159	0.642479
	O1844	O	0.781615	0.207920	0.645400
	C1845	C	0.103844	0.050425	0.841111
	O1846	O	0.097849	0.031494	0.813817
	O1847	O	0.109826	0.069391	0.868432
	C1848	C	0.384691	0.743640	0.878549
	O1849	O	0.365608	0.707503	0.866403
	O1850	O	0.403774	0.779777	0.890695
	C1851	C	0.142982	0.798596	0.718166
	O1852	O	0.177486	0.815255	0.733017
	O1853	O	0.108477	0.781938	0.703288
	C1854	C	0.248210	0.735780	0.139256
	O1855	O	0.223830	0.734612	0.116940
	O1856	O	0.272636	0.736982	0.161600
	C1857	C	0.585136	0.038767	0.082883
	O1858	O	0.604270	0.069643	0.101927
	O1859	O	0.565973	0.007891	0.063812
	C1860	C	0.145059	0.334635	0.276538
	O1861	O	0.147326	0.305984	0.291416
	O1862	O	0.142762	0.363286	0.261660
	C1863	C	0.177383	0.614356	0.086832
	O1864	O	0.194285	0.632849	0.113612
	O1865	O	0.160481	0.595864	0.060052
	C1866	C	0.695205	0.848749	0.809705
	O1867	O	0.659944	0.843253	0.817415
	O1868	O	0.730479	0.854211	0.802023
	C1869	C	0.065668	0.623499	0.153269
	O1870	O	0.028238	0.612969	0.158571
	O1871	O	0.103098	0.634028	0.147994
	C1872	C	0.002859	0.205459	0.462727
	O1873	O	-0.015622	0.191607	0.490103
	O1874	O	0.021324	0.219277	0.435352
	C1875	C	0.876886	0.415950	0.852229
	O1876	O	0.886001	0.404191	0.878766
	O1877	O	0.867725	0.427675	0.825719
	C1878	C	0.321714	0.699304	0.386580
	O1879	O	0.344773	0.731428	0.403351
	O1880	O	0.298638	0.667147	0.369782
	C1881	C	0.566387	0.377309	0.497325
	O1882	O	0.568092	0.396948	0.523456
	O1883	O	0.564698	0.357703	0.471194
	C1884	C	0.047245	0.378463	0.989781
	O1885	O	0.017442	0.342511	0.995840
	O1886	O	0.077031	0.414381	0.983722
	C1887	C	0.659432	0.366707	0.534303
	O1888	O	0.669855	0.393865	0.511878
	O1889	O	0.649009	0.339548	0.556728
	C1890	C	0.825925	0.160648	0.006222
	O1891	O	0.804927	0.171605	-0.011307
	O1892	O	0.846969	0.149725	0.023723
	C1893	C	0.944082	0.822437	0.686003
	O1894	O	0.952350	0.828880	0.716624
	O1895	O	0.935798	0.815961	0.655382
	C1896	C	0.726516	0.239724	0.122593
	O1897	O	0.694085	0.234208	0.108094
	O1898	O	0.758959	0.245207	0.137065
	C1899	C	0.179107	0.603275	0.339728
	O1900	O	0.173717	0.589323	0.369024
	O1901	O	0.184496	0.617226	0.310433
	C1902	C	0.101665	0.761057	0.387527
	O1903	O	0.086747	0.784927	0.387662
	O1904	O	0.116612	0.737187	0.387392
	C1905	C	0.018182	0.226831	0.948664
	O1906	O	0.003417	0.219295	0.977744
	O1907	O	0.032948	0.234368	0.919585
	C1908	C	0.670246	0.330376	0.270560
	O1909	O	0.682040	0.307159	0.283598
	O1910	O	0.658482	0.353593	0.257522
	C1911	C	0.697241	0.642220	0.097139
	O1912	O	0.718243	0.639675	0.120700
	O1913	O	0.676256	0.644798	0.073551
	C1914	C	0.472903	0.260220	0.198605
	O1915	O	0.446874	0.236132	0.219732
	O1916	O	0.498919	0.284341	0.177506
	C1917	C	0.311481	0.651314	0.184566
	O1918	O	0.340601	0.673379	0.204421
	O1919	O	0.282391	0.629249	0.164711
	C1920	C	0.721729	0.526890	0.549235
	O1921	O	0.730480	0.540422	0.578639
	O1922	O	0.713007	0.513359	0.519804
	C1923	C	0.291237	0.758295	0.880280
	O1924	O	0.310892	0.792990	0.865862
	O1925	O	0.271553	0.723600	0.894698
	C1926	C	0.404081	0.469908	0.559190
	O1927	O	0.415434	0.446861	0.573148
	O1928	O	0.392746	0.492989	0.545232
	C1929	C	0.140600	0.059374	0.581885
	O1930	O	0.130128	0.038384	0.555349
	O1931	O	0.151101	0.080365	0.608422
	C1932	C	0.320320	0.298371	0.908088
	O1933	O	0.347740	0.334287	0.899053
	O1934	O	0.292900	0.262456	0.917096
	C1935	C	0.353681	0.206379	0.621163
	O1936	O	0.356555	0.226019	0.647591
	O1937	O	0.350825	0.186773	0.594734
	C1938	C	0.451425	0.377480	0.426101
	O1939	O	0.434692	0.388028	0.403784
	O1940	O	0.468141	0.366899	0.448418
	C1941	C	0.815597	0.426581	0.324769
	O1942	O	0.796276	0.410958	0.297989
	O1943	O	0.834871	0.442170	0.351522
	C1944	C	0.310824	0.624247	0.308674
	O1945	O	0.343849	0.658411	0.304211
	O1946	O	0.277816	0.590117	0.313165
	C1947	C	0.781938	0.772654	0.368077
	O1948	O	0.767781	0.750698	0.393938
	O1949	O	0.796048	0.794576	0.342217
	C1950	C	0.354292	0.680791	0.486018
	O1951	O	0.387906	0.685460	0.497542
	O1952	O	0.320678	0.676121	0.474467
	C1953	C	0.271129	0.588789	0.077392
	O1954	O	0.309045	0.600232	0.073659
	O1955	O	0.233230	0.577381	0.081125
	C1956	C	0.645997	0.691780	0.877846
	O1957	O	0.627434	0.699897	0.855394
	O1958	O	0.664530	0.683664	0.900325
	C1959	C	0.952775	0.381097	0.692116
	O1960	O	0.974831	0.370038	0.708049
	O1961	O	0.930735	0.392191	0.676184
	C1962	C	0.805599	0.162298	0.785603
	O1963	O	0.822603	0.179966	0.758607
	O1964	O	0.788641	0.144665	0.812600
	C1965	C	0.363335	0.349447	0.638935
	O1966	O	0.351169	0.344086	0.609071
	O1967	O	0.375502	0.354809	0.668772
	C1968	C	0.325841	0.163472	0.253626
	O1969	O	0.311025	0.182635	0.238180
	O1970	O	0.340657	0.144309	0.269072
	C1971	C	0.089485	0.751494	0.901542
	O1972	O	0.104412	0.789652	0.907656
	O1973	O	0.074575	0.713371	0.895429
	C1974	C	0.255954	0.765709	0.640774
	O1975	O	0.290406	0.787802	0.655057
	O1976	O	0.221515	0.743581	0.626519
	C1977	C	0.081155	0.932205	0.505657
	O1978	O	0.097362	0.937937	0.534168
	O1979	O	0.064919	0.926474	0.477172
	C1980	C	0.151786	0.148130	0.127030
	O1981	O	0.147869	0.176580	0.113504
	O1982	O	0.155685	0.119647	0.140528
	C1983	C	0.711983	0.980112	0.017177
	O1984	O	0.699053	0.953047	-0.005545
	O1985	O	0.724913	1.007176	0.039900
	C1986	C	0.690385	0.822253	0.370160
	O1987	O	0.695954	0.802211	0.347330
	O1988	O	0.684845	0.842295	0.392964
	C1989	C	0.957256	0.083262	0.227874
	O1990	O	0.978364	0.107145	0.204475
	O1991	O	0.936165	0.059413	0.251273
	C1992	C	0.946007	0.362498	0.173584
	O1993	O	0.982023	0.368986	0.179724
	O1994	O	0.910008	0.356044	0.167443
	C1995	C	0.555585	0.112558	0.664795
	O1996	O	0.590082	0.116703	0.656220
	O1997	O	0.521087	0.108413	0.673370
	C1998	C	0.975693	0.703897	0.723657
	O1999	O	0.986620	0.708259	0.693523
	O2000	O	0.964748	0.699501	0.753792
	C2001	C	0.811916	0.870773	0.597872
	O2002	O	0.833440	0.874172	0.623219
	O2003	O	0.790404	0.867340	0.572553
	C2004	C	0.301914	0.127708	0.093920
	O2005	O	0.314002	0.101748	0.097517
	O2006	O	0.289825	0.153668	0.090295
	C2007	C	0.718850	0.621244	0.310676
	O2008	O	0.756034	0.629884	0.307241
	O2009	O	0.681682	0.612637	0.314111
	C2010	C	0.647827	0.572979	0.589324
	O2011	O	0.626219	0.533848	0.588945
	O2012	O	0.669436	0.612110	0.589703
	C2013	C	0.537889	0.154399	0.935653
	O2014	O	0.513513	0.165496	0.923940
	O2015	O	0.562294	0.143301	0.947366
	C2016	C	0.336131	0.228351	0.164495
	O2017	O	0.343468	0.205544	0.145749
	O2018	O	0.328794	0.251157	0.183241
	C2019	C	0.854521	0.108068	0.553672
	O2020	O	0.890717	0.133280	0.543582
	O2021	O	0.818353	0.082857	0.563734
	C2022	C	0.535327	0.384788	0.218839
	O2023	O	0.510900	0.384842	0.240588
	O2024	O	0.559799	0.384769	0.197091
	C2025	C	0.590340	0.647913	0.419419
	O2026	O	0.556309	0.631114	0.434946
	O2027	O	0.624418	0.664747	0.403892
	C2028	C	0.176470	0.724017	0.870786
	O2029	O	0.145942	0.695198	0.885934
	O2030	O	0.207015	0.752871	0.855637
